<?xml version="1.0" encoding="UTF-8"?>

<!-- generated on 2025-09-09 18:30:14 by Eclipse SUMO netedit Version 1.24.0
<neteditConfiguration xmlns:xsi="http://www.w3.org/2001/XMLSchema-instance" xsi:noNamespaceSchemaLocation="http://sumo.dlr.de/xsd/neteditConfiguration.xsd">

    <input>
        <sumocfg-file value="D:\main project\final\map3\RL.sumocfg"/>
        <sumo-net-file value="D:\main project\final\map3\RL.net.xml"/>
    </input>

    <output>
        <output-file value="D:\main project\final\map3\RL.net.xml"/>
    </output>

    <processing>
        <geometry.min-radius.fix.railways value="false"/>
        <geometry.avoid-overlap value="false"/>
        <geometry.max-grade.fix value="false"/>
        <offset.disable-normalization value="true"/>
        <lefthand value="0"/>
    </processing>

    <junctions>
        <no-turnarounds value="true"/>
        <junctions.corner-detail value="5"/>
        <junctions.limit-turn-speed value="5.50"/>
        <rectangular-lane-cut value="0"/>
    </junctions>

    <pedestrian>
        <walkingareas value="0"/>
    </pedestrian>

    <netedit>
        <new-network value="false"/>
        <ignore.additionalelements value="0"/>
        <ignore.routeelements value="0"/>
    </netedit>

</neteditConfiguration>
-->

<net version="1.20" junctionCornerDetail="5" limitTurnSpeed="5.50" avoidOverlap="0" xmlns:xsi="http://www.w3.org/2001/XMLSchema-instance" xsi:noNamespaceSchemaLocation="http://sumo.dlr.de/xsd/net_file.xsd">

    <location netOffset="0.00,0.00" convBoundary="0.00,-1000.00,1000.00,-400.00" origBoundary="-10000000000.00,-10000000000.00,10000000000.00,10000000000.00" projParameter="!"/>

    <edge id=":J25_0" function="internal">
        <lane id=":J25_0_0" index="0" speed="6.08" length="7.74" shape="3.20,-398.40 1.10,-398.70 -0.40,-399.60 -1.30,-401.10 -1.60,-403.20"/>
        <lane id=":J25_0_1" index="1" speed="3.90" length="2.58" shape="3.20,-401.60 2.50,-401.70 2.00,-402.00 1.70,-402.50 1.60,-403.20"/>
    </edge>
    <edge id=":J25_2" function="internal">
        <lane id=":J25_2_0" index="0" speed="3.90" length="2.58" shape="1.60,-403.20 1.70,-402.50 2.00,-402.00 2.50,-401.70 3.20,-401.60"/>
        <lane id=":J25_2_1" index="1" speed="6.08" length="7.74" shape="-1.60,-403.20 -1.30,-401.10 -0.40,-399.60 1.10,-398.70 3.20,-398.40"/>
    </edge>
    <edge id=":J26_0" function="internal">
        <lane id=":J26_0_0" index="0" speed="40.00" length="14.40" shape="207.20,-398.40 192.80,-398.40"/>
        <lane id=":J26_0_1" index="1" speed="40.00" length="14.40" shape="207.20,-401.60 192.80,-401.60"/>
    </edge>
    <edge id=":J26_2" function="internal">
        <lane id=":J26_2_0" index="0" speed="6.51" length="3.04" shape="207.20,-401.60 204.75,-401.95 204.26,-402.24"/>
    </edge>
    <edge id=":J26_8" function="internal">
        <lane id=":J26_8_0" index="0" speed="6.51" length="5.99" shape="204.26,-402.24 203.00,-403.00 201.95,-404.75 201.60,-407.20"/>
    </edge>
    <edge id=":J26_3" function="internal">
        <lane id=":J26_3_0" index="0" speed="6.51" length="9.03" shape="201.60,-407.20 201.95,-404.75 203.00,-403.00 204.75,-401.95 207.20,-401.60"/>
    </edge>
    <edge id=":J26_4" function="internal">
        <lane id=":J26_4_0" index="0" speed="6.51" length="9.03" shape="198.40,-407.20 198.05,-404.75 197.00,-403.00 195.25,-401.95 192.80,-401.60"/>
    </edge>
    <edge id=":J26_5" function="internal">
        <lane id=":J26_5_0" index="0" speed="6.51" length="9.03" shape="192.80,-401.60 195.25,-401.95 197.00,-403.00 198.05,-404.75 198.40,-407.20"/>
    </edge>
    <edge id=":J26_6" function="internal">
        <lane id=":J26_6_0" index="0" speed="40.00" length="14.40" shape="192.80,-401.60 207.20,-401.60"/>
        <lane id=":J26_6_1" index="1" speed="40.00" length="14.40" shape="192.80,-398.40 207.20,-398.40"/>
    </edge>
    <edge id=":J27_0" function="internal">
        <lane id=":J27_0_0" index="0" speed="40.00" length="14.40" shape="407.20,-398.40 392.80,-398.40"/>
        <lane id=":J27_0_1" index="1" speed="40.00" length="14.40" shape="407.20,-401.60 392.80,-401.60"/>
    </edge>
    <edge id=":J27_2" function="internal">
        <lane id=":J27_2_0" index="0" speed="6.51" length="3.04" shape="407.20,-401.60 404.75,-401.95 404.26,-402.24"/>
    </edge>
    <edge id=":J27_8" function="internal">
        <lane id=":J27_8_0" index="0" speed="6.51" length="5.99" shape="404.26,-402.24 403.00,-403.00 401.95,-404.75 401.60,-407.20"/>
    </edge>
    <edge id=":J27_3" function="internal">
        <lane id=":J27_3_0" index="0" speed="6.51" length="9.03" shape="401.60,-407.20 401.95,-404.75 403.00,-403.00 404.75,-401.95 407.20,-401.60"/>
    </edge>
    <edge id=":J27_4" function="internal">
        <lane id=":J27_4_0" index="0" speed="6.51" length="9.03" shape="398.40,-407.20 398.05,-404.75 397.00,-403.00 395.25,-401.95 392.80,-401.60"/>
    </edge>
    <edge id=":J27_5" function="internal">
        <lane id=":J27_5_0" index="0" speed="6.51" length="9.03" shape="392.80,-401.60 395.25,-401.95 397.00,-403.00 398.05,-404.75 398.40,-407.20"/>
    </edge>
    <edge id=":J27_6" function="internal">
        <lane id=":J27_6_0" index="0" speed="40.00" length="14.40" shape="392.80,-401.60 407.20,-401.60"/>
        <lane id=":J27_6_1" index="1" speed="40.00" length="14.40" shape="392.80,-398.40 407.20,-398.40"/>
    </edge>
    <edge id=":J28_0" function="internal">
        <lane id=":J28_0_0" index="0" speed="40.00" length="14.40" shape="607.20,-398.40 592.80,-398.40"/>
        <lane id=":J28_0_1" index="1" speed="40.00" length="14.40" shape="607.20,-401.60 592.80,-401.60"/>
    </edge>
    <edge id=":J28_2" function="internal">
        <lane id=":J28_2_0" index="0" speed="6.51" length="3.04" shape="607.20,-401.60 604.75,-401.95 604.26,-402.24"/>
    </edge>
    <edge id=":J28_8" function="internal">
        <lane id=":J28_8_0" index="0" speed="6.51" length="5.99" shape="604.26,-402.24 603.00,-403.00 601.95,-404.75 601.60,-407.20"/>
    </edge>
    <edge id=":J28_3" function="internal">
        <lane id=":J28_3_0" index="0" speed="6.51" length="9.03" shape="601.60,-407.20 601.95,-404.75 603.00,-403.00 604.75,-401.95 607.20,-401.60"/>
    </edge>
    <edge id=":J28_4" function="internal">
        <lane id=":J28_4_0" index="0" speed="6.51" length="9.03" shape="598.40,-407.20 598.05,-404.75 597.00,-403.00 595.25,-401.95 592.80,-401.60"/>
    </edge>
    <edge id=":J28_5" function="internal">
        <lane id=":J28_5_0" index="0" speed="6.51" length="9.03" shape="592.80,-401.60 595.25,-401.95 597.00,-403.00 598.05,-404.75 598.40,-407.20"/>
    </edge>
    <edge id=":J28_6" function="internal">
        <lane id=":J28_6_0" index="0" speed="40.00" length="14.40" shape="592.80,-401.60 607.20,-401.60"/>
        <lane id=":J28_6_1" index="1" speed="40.00" length="14.40" shape="592.80,-398.40 607.20,-398.40"/>
    </edge>
    <edge id=":J29_0" function="internal">
        <lane id=":J29_0_0" index="0" speed="40.00" length="14.40" shape="807.20,-398.40 792.80,-398.40"/>
        <lane id=":J29_0_1" index="1" speed="40.00" length="14.40" shape="807.20,-401.60 792.80,-401.60"/>
    </edge>
    <edge id=":J29_2" function="internal">
        <lane id=":J29_2_0" index="0" speed="6.51" length="3.04" shape="807.20,-401.60 804.75,-401.95 804.26,-402.24"/>
    </edge>
    <edge id=":J29_8" function="internal">
        <lane id=":J29_8_0" index="0" speed="6.51" length="5.99" shape="804.26,-402.24 803.00,-403.00 801.95,-404.75 801.60,-407.20"/>
    </edge>
    <edge id=":J29_3" function="internal">
        <lane id=":J29_3_0" index="0" speed="6.51" length="9.03" shape="801.60,-407.20 801.95,-404.75 803.00,-403.00 804.75,-401.95 807.20,-401.60"/>
    </edge>
    <edge id=":J29_4" function="internal">
        <lane id=":J29_4_0" index="0" speed="6.51" length="9.03" shape="798.40,-407.20 798.05,-404.75 797.00,-403.00 795.25,-401.95 792.80,-401.60"/>
    </edge>
    <edge id=":J29_5" function="internal">
        <lane id=":J29_5_0" index="0" speed="6.51" length="9.03" shape="792.80,-401.60 795.25,-401.95 797.00,-403.00 798.05,-404.75 798.40,-407.20"/>
    </edge>
    <edge id=":J29_6" function="internal">
        <lane id=":J29_6_0" index="0" speed="40.00" length="14.40" shape="792.80,-401.60 807.20,-401.60"/>
        <lane id=":J29_6_1" index="1" speed="40.00" length="14.40" shape="792.80,-398.40 807.20,-398.40"/>
    </edge>
    <edge id=":J30_0" function="internal">
        <lane id=":J30_0_0" index="0" speed="6.08" length="7.74" shape="1001.60,-403.20 1001.30,-401.10 1000.40,-399.60 998.90,-398.70 996.80,-398.40"/>
        <lane id=":J30_0_1" index="1" speed="3.90" length="2.58" shape="998.40,-403.20 998.30,-402.50 998.00,-402.00 997.50,-401.70 996.80,-401.60"/>
    </edge>
    <edge id=":J30_2" function="internal">
        <lane id=":J30_2_0" index="0" speed="3.90" length="2.58" shape="996.80,-401.60 997.50,-401.70 998.00,-402.00 998.30,-402.50 998.40,-403.20"/>
        <lane id=":J30_2_1" index="1" speed="6.08" length="7.74" shape="996.80,-398.40 998.90,-398.70 1000.40,-399.60 1001.30,-401.10 1001.60,-403.20"/>
    </edge>
    <edge id=":J31_0" function="internal">
        <lane id=":J31_0_0" index="0" speed="6.51" length="9.03" shape="998.40,-592.80 998.05,-595.25 997.00,-597.00 995.25,-598.05 992.80,-598.40"/>
    </edge>
    <edge id=":J31_1" function="internal">
        <lane id=":J31_1_0" index="0" speed="40.00" length="14.40" shape="998.40,-592.80 998.40,-607.20"/>
        <lane id=":J31_1_1" index="1" speed="40.00" length="14.40" shape="1001.60,-592.80 1001.60,-607.20"/>
    </edge>
    <edge id=":J31_3" function="internal">
        <lane id=":J31_3_0" index="0" speed="40.00" length="14.40" shape="1001.60,-607.20 1001.60,-592.80"/>
        <lane id=":J31_3_1" index="1" speed="40.00" length="14.40" shape="998.40,-607.20 998.40,-592.80"/>
    </edge>
    <edge id=":J31_5" function="internal">
        <lane id=":J31_5_0" index="0" speed="6.51" length="3.04" shape="998.40,-607.20 998.05,-604.75 997.76,-604.26"/>
    </edge>
    <edge id=":J31_8" function="internal">
        <lane id=":J31_8_0" index="0" speed="6.51" length="5.99" shape="997.76,-604.26 997.00,-603.00 995.25,-601.95 992.80,-601.60"/>
    </edge>
    <edge id=":J31_6" function="internal">
        <lane id=":J31_6_0" index="0" speed="6.51" length="9.03" shape="992.80,-601.60 995.25,-601.95 997.00,-603.00 998.05,-604.75 998.40,-607.20"/>
    </edge>
    <edge id=":J31_7" function="internal">
        <lane id=":J31_7_0" index="0" speed="6.51" length="9.03" shape="992.80,-598.40 995.25,-598.05 997.00,-597.00 998.05,-595.25 998.40,-592.80"/>
    </edge>
    <edge id=":J32_0" function="internal">
        <lane id=":J32_0_0" index="0" speed="6.51" length="9.03" shape="798.40,-592.80 798.05,-595.25 797.00,-597.00 795.25,-598.05 792.80,-598.40"/>
    </edge>
    <edge id=":J32_1" function="internal">
        <lane id=":J32_1_0" index="0" speed="40.00" length="14.40" shape="798.40,-592.80 798.40,-607.20"/>
        <lane id=":J32_1_1" index="1" speed="40.00" length="14.40" shape="801.60,-592.80 801.60,-607.20"/>
    </edge>
    <edge id=":J32_3" function="internal">
        <lane id=":J32_3_0" index="0" speed="6.51" length="9.03" shape="801.60,-592.80 801.95,-595.25 803.00,-597.00 804.75,-598.05 807.20,-598.40"/>
    </edge>
    <edge id=":J32_4" function="internal">
        <lane id=":J32_4_0" index="0" speed="6.51" length="9.03" shape="807.20,-598.40 804.75,-598.05 803.00,-597.00 801.95,-595.25 801.60,-592.80"/>
    </edge>
    <edge id=":J32_5" function="internal">
        <lane id=":J32_5_0" index="0" speed="40.00" length="14.40" shape="807.20,-598.40 792.80,-598.40"/>
        <lane id=":J32_5_1" index="1" speed="40.00" length="14.40" shape="807.20,-601.60 792.80,-601.60"/>
    </edge>
    <edge id=":J32_7" function="internal">
        <lane id=":J32_7_0" index="0" speed="6.51" length="9.03" shape="807.20,-601.60 804.75,-601.95 803.00,-603.00 801.95,-604.75 801.60,-607.20"/>
    </edge>
    <edge id=":J32_8" function="internal">
        <lane id=":J32_8_0" index="0" speed="6.51" length="9.03" shape="801.60,-607.20 801.95,-604.75 803.00,-603.00 804.75,-601.95 807.20,-601.60"/>
    </edge>
    <edge id=":J32_9" function="internal">
        <lane id=":J32_9_0" index="0" speed="40.00" length="14.40" shape="801.60,-607.20 801.60,-592.80"/>
        <lane id=":J32_9_1" index="1" speed="40.00" length="14.40" shape="798.40,-607.20 798.40,-592.80"/>
    </edge>
    <edge id=":J32_11" function="internal">
        <lane id=":J32_11_0" index="0" speed="6.51" length="9.03" shape="798.40,-607.20 798.05,-604.75 797.00,-603.00 795.25,-601.95 792.80,-601.60"/>
    </edge>
    <edge id=":J32_12" function="internal">
        <lane id=":J32_12_0" index="0" speed="6.51" length="9.03" shape="792.80,-601.60 795.25,-601.95 797.00,-603.00 798.05,-604.75 798.40,-607.20"/>
    </edge>
    <edge id=":J32_13" function="internal">
        <lane id=":J32_13_0" index="0" speed="40.00" length="14.40" shape="792.80,-601.60 807.20,-601.60"/>
        <lane id=":J32_13_1" index="1" speed="40.00" length="14.40" shape="792.80,-598.40 807.20,-598.40"/>
    </edge>
    <edge id=":J32_15" function="internal">
        <lane id=":J32_15_0" index="0" speed="6.51" length="9.03" shape="792.80,-598.40 795.25,-598.05 797.00,-597.00 798.05,-595.25 798.40,-592.80"/>
    </edge>
    <edge id=":J33_0" function="internal">
        <lane id=":J33_0_0" index="0" speed="6.51" length="9.03" shape="598.40,-592.80 598.05,-595.25 597.00,-597.00 595.25,-598.05 592.80,-598.40"/>
    </edge>
    <edge id=":J33_1" function="internal">
        <lane id=":J33_1_0" index="0" speed="40.00" length="14.40" shape="598.40,-592.80 598.40,-607.20"/>
        <lane id=":J33_1_1" index="1" speed="40.00" length="14.40" shape="601.60,-592.80 601.60,-607.20"/>
    </edge>
    <edge id=":J33_3" function="internal">
        <lane id=":J33_3_0" index="0" speed="6.51" length="9.03" shape="601.60,-592.80 601.95,-595.25 603.00,-597.00 604.75,-598.05 607.20,-598.40"/>
    </edge>
    <edge id=":J33_4" function="internal">
        <lane id=":J33_4_0" index="0" speed="6.51" length="9.03" shape="607.20,-598.40 604.75,-598.05 603.00,-597.00 601.95,-595.25 601.60,-592.80"/>
    </edge>
    <edge id=":J33_5" function="internal">
        <lane id=":J33_5_0" index="0" speed="40.00" length="14.40" shape="607.20,-598.40 592.80,-598.40"/>
        <lane id=":J33_5_1" index="1" speed="40.00" length="14.40" shape="607.20,-601.60 592.80,-601.60"/>
    </edge>
    <edge id=":J33_7" function="internal">
        <lane id=":J33_7_0" index="0" speed="6.51" length="9.03" shape="607.20,-601.60 604.75,-601.95 603.00,-603.00 601.95,-604.75 601.60,-607.20"/>
    </edge>
    <edge id=":J33_8" function="internal">
        <lane id=":J33_8_0" index="0" speed="6.51" length="9.03" shape="601.60,-607.20 601.95,-604.75 603.00,-603.00 604.75,-601.95 607.20,-601.60"/>
    </edge>
    <edge id=":J33_9" function="internal">
        <lane id=":J33_9_0" index="0" speed="40.00" length="14.40" shape="601.60,-607.20 601.60,-592.80"/>
        <lane id=":J33_9_1" index="1" speed="40.00" length="14.40" shape="598.40,-607.20 598.40,-592.80"/>
    </edge>
    <edge id=":J33_11" function="internal">
        <lane id=":J33_11_0" index="0" speed="6.51" length="9.03" shape="598.40,-607.20 598.05,-604.75 597.00,-603.00 595.25,-601.95 592.80,-601.60"/>
    </edge>
    <edge id=":J33_12" function="internal">
        <lane id=":J33_12_0" index="0" speed="6.51" length="9.03" shape="592.80,-601.60 595.25,-601.95 597.00,-603.00 598.05,-604.75 598.40,-607.20"/>
    </edge>
    <edge id=":J33_13" function="internal">
        <lane id=":J33_13_0" index="0" speed="40.00" length="14.40" shape="592.80,-601.60 607.20,-601.60"/>
        <lane id=":J33_13_1" index="1" speed="40.00" length="14.40" shape="592.80,-598.40 607.20,-598.40"/>
    </edge>
    <edge id=":J33_15" function="internal">
        <lane id=":J33_15_0" index="0" speed="6.51" length="9.03" shape="592.80,-598.40 595.25,-598.05 597.00,-597.00 598.05,-595.25 598.40,-592.80"/>
    </edge>
    <edge id=":J34_0" function="internal">
        <lane id=":J34_0_0" index="0" speed="6.51" length="9.03" shape="398.40,-592.80 398.05,-595.25 397.00,-597.00 395.25,-598.05 392.80,-598.40"/>
    </edge>
    <edge id=":J34_1" function="internal">
        <lane id=":J34_1_0" index="0" speed="40.00" length="14.40" shape="398.40,-592.80 398.40,-607.20"/>
        <lane id=":J34_1_1" index="1" speed="40.00" length="14.40" shape="401.60,-592.80 401.60,-607.20"/>
    </edge>
    <edge id=":J34_3" function="internal">
        <lane id=":J34_3_0" index="0" speed="6.51" length="9.03" shape="401.60,-592.80 401.95,-595.25 403.00,-597.00 404.75,-598.05 407.20,-598.40"/>
    </edge>
    <edge id=":J34_4" function="internal">
        <lane id=":J34_4_0" index="0" speed="6.51" length="9.03" shape="407.20,-598.40 404.75,-598.05 403.00,-597.00 401.95,-595.25 401.60,-592.80"/>
    </edge>
    <edge id=":J34_5" function="internal">
        <lane id=":J34_5_0" index="0" speed="40.00" length="14.40" shape="407.20,-598.40 392.80,-598.40"/>
        <lane id=":J34_5_1" index="1" speed="40.00" length="14.40" shape="407.20,-601.60 392.80,-601.60"/>
    </edge>
    <edge id=":J34_7" function="internal">
        <lane id=":J34_7_0" index="0" speed="6.51" length="9.03" shape="407.20,-601.60 404.75,-601.95 403.00,-603.00 401.95,-604.75 401.60,-607.20"/>
    </edge>
    <edge id=":J34_8" function="internal">
        <lane id=":J34_8_0" index="0" speed="6.51" length="9.03" shape="401.60,-607.20 401.95,-604.75 403.00,-603.00 404.75,-601.95 407.20,-601.60"/>
    </edge>
    <edge id=":J34_9" function="internal">
        <lane id=":J34_9_0" index="0" speed="40.00" length="14.40" shape="401.60,-607.20 401.60,-592.80"/>
        <lane id=":J34_9_1" index="1" speed="40.00" length="14.40" shape="398.40,-607.20 398.40,-592.80"/>
    </edge>
    <edge id=":J34_11" function="internal">
        <lane id=":J34_11_0" index="0" speed="6.51" length="9.03" shape="398.40,-607.20 398.05,-604.75 397.00,-603.00 395.25,-601.95 392.80,-601.60"/>
    </edge>
    <edge id=":J34_12" function="internal">
        <lane id=":J34_12_0" index="0" speed="6.51" length="9.03" shape="392.80,-601.60 395.25,-601.95 397.00,-603.00 398.05,-604.75 398.40,-607.20"/>
    </edge>
    <edge id=":J34_13" function="internal">
        <lane id=":J34_13_0" index="0" speed="40.00" length="14.40" shape="392.80,-601.60 407.20,-601.60"/>
        <lane id=":J34_13_1" index="1" speed="40.00" length="14.40" shape="392.80,-598.40 407.20,-598.40"/>
    </edge>
    <edge id=":J34_15" function="internal">
        <lane id=":J34_15_0" index="0" speed="6.51" length="9.03" shape="392.80,-598.40 395.25,-598.05 397.00,-597.00 398.05,-595.25 398.40,-592.80"/>
    </edge>
    <edge id=":J35_0" function="internal">
        <lane id=":J35_0_0" index="0" speed="6.51" length="9.03" shape="198.40,-592.80 198.05,-595.25 197.00,-597.00 195.25,-598.05 192.80,-598.40"/>
    </edge>
    <edge id=":J35_1" function="internal">
        <lane id=":J35_1_0" index="0" speed="40.00" length="14.40" shape="198.40,-592.80 198.40,-607.20"/>
        <lane id=":J35_1_1" index="1" speed="40.00" length="14.40" shape="201.60,-592.80 201.60,-607.20"/>
    </edge>
    <edge id=":J35_3" function="internal">
        <lane id=":J35_3_0" index="0" speed="6.51" length="9.03" shape="201.60,-592.80 201.95,-595.25 203.00,-597.00 204.75,-598.05 207.20,-598.40"/>
    </edge>
    <edge id=":J35_4" function="internal">
        <lane id=":J35_4_0" index="0" speed="6.51" length="9.03" shape="207.20,-598.40 204.75,-598.05 203.00,-597.00 201.95,-595.25 201.60,-592.80"/>
    </edge>
    <edge id=":J35_5" function="internal">
        <lane id=":J35_5_0" index="0" speed="40.00" length="14.40" shape="207.20,-598.40 192.80,-598.40"/>
        <lane id=":J35_5_1" index="1" speed="40.00" length="14.40" shape="207.20,-601.60 192.80,-601.60"/>
    </edge>
    <edge id=":J35_7" function="internal">
        <lane id=":J35_7_0" index="0" speed="6.51" length="9.03" shape="207.20,-601.60 204.75,-601.95 203.00,-603.00 201.95,-604.75 201.60,-607.20"/>
    </edge>
    <edge id=":J35_8" function="internal">
        <lane id=":J35_8_0" index="0" speed="6.51" length="9.03" shape="201.60,-607.20 201.95,-604.75 203.00,-603.00 204.75,-601.95 207.20,-601.60"/>
    </edge>
    <edge id=":J35_9" function="internal">
        <lane id=":J35_9_0" index="0" speed="40.00" length="14.40" shape="201.60,-607.20 201.60,-592.80"/>
        <lane id=":J35_9_1" index="1" speed="40.00" length="14.40" shape="198.40,-607.20 198.40,-592.80"/>
    </edge>
    <edge id=":J35_11" function="internal">
        <lane id=":J35_11_0" index="0" speed="6.51" length="9.03" shape="198.40,-607.20 198.05,-604.75 197.00,-603.00 195.25,-601.95 192.80,-601.60"/>
    </edge>
    <edge id=":J35_12" function="internal">
        <lane id=":J35_12_0" index="0" speed="6.51" length="9.03" shape="192.80,-601.60 195.25,-601.95 197.00,-603.00 198.05,-604.75 198.40,-607.20"/>
    </edge>
    <edge id=":J35_13" function="internal">
        <lane id=":J35_13_0" index="0" speed="40.00" length="14.40" shape="192.80,-601.60 207.20,-601.60"/>
        <lane id=":J35_13_1" index="1" speed="40.00" length="14.40" shape="192.80,-598.40 207.20,-598.40"/>
    </edge>
    <edge id=":J35_15" function="internal">
        <lane id=":J35_15_0" index="0" speed="6.51" length="9.03" shape="192.80,-598.40 195.25,-598.05 197.00,-597.00 198.05,-595.25 198.40,-592.80"/>
    </edge>
    <edge id=":J36_0" function="internal">
        <lane id=":J36_0_0" index="0" speed="40.00" length="14.40" shape="-1.60,-592.80 -1.60,-607.20"/>
        <lane id=":J36_0_1" index="1" speed="40.00" length="14.40" shape="1.60,-592.80 1.60,-607.20"/>
    </edge>
    <edge id=":J36_2" function="internal">
        <lane id=":J36_2_0" index="0" speed="6.51" length="3.04" shape="1.60,-592.80 1.95,-595.25 2.24,-595.74"/>
    </edge>
    <edge id=":J36_8" function="internal">
        <lane id=":J36_8_0" index="0" speed="6.51" length="5.99" shape="2.24,-595.74 3.00,-597.00 4.75,-598.05 7.20,-598.40"/>
    </edge>
    <edge id=":J36_3" function="internal">
        <lane id=":J36_3_0" index="0" speed="6.51" length="9.03" shape="7.20,-598.40 4.75,-598.05 3.00,-597.00 1.95,-595.25 1.60,-592.80"/>
    </edge>
    <edge id=":J36_4" function="internal">
        <lane id=":J36_4_0" index="0" speed="6.51" length="9.03" shape="7.20,-601.60 4.75,-601.95 3.00,-603.00 1.95,-604.75 1.60,-607.20"/>
    </edge>
    <edge id=":J36_5" function="internal">
        <lane id=":J36_5_0" index="0" speed="6.51" length="9.03" shape="1.60,-607.20 1.95,-604.75 3.00,-603.00 4.75,-601.95 7.20,-601.60"/>
    </edge>
    <edge id=":J36_6" function="internal">
        <lane id=":J36_6_0" index="0" speed="40.00" length="14.40" shape="1.60,-607.20 1.60,-592.80"/>
        <lane id=":J36_6_1" index="1" speed="40.00" length="14.40" shape="-1.60,-607.20 -1.60,-592.80"/>
    </edge>
    <edge id=":J37_0" function="internal">
        <lane id=":J37_0_0" index="0" speed="6.51" length="9.03" shape="998.40,-792.80 998.05,-795.25 997.00,-797.00 995.25,-798.05 992.80,-798.40"/>
    </edge>
    <edge id=":J37_1" function="internal">
        <lane id=":J37_1_0" index="0" speed="40.00" length="14.40" shape="998.40,-792.80 998.40,-807.20"/>
        <lane id=":J37_1_1" index="1" speed="40.00" length="14.40" shape="1001.60,-792.80 1001.60,-807.20"/>
    </edge>
    <edge id=":J37_3" function="internal">
        <lane id=":J37_3_0" index="0" speed="40.00" length="14.40" shape="1001.60,-807.20 1001.60,-792.80"/>
        <lane id=":J37_3_1" index="1" speed="40.00" length="14.40" shape="998.40,-807.20 998.40,-792.80"/>
    </edge>
    <edge id=":J37_5" function="internal">
        <lane id=":J37_5_0" index="0" speed="6.51" length="3.04" shape="998.40,-807.20 998.05,-804.75 997.76,-804.26"/>
    </edge>
    <edge id=":J37_8" function="internal">
        <lane id=":J37_8_0" index="0" speed="6.51" length="5.99" shape="997.76,-804.26 997.00,-803.00 995.25,-801.95 992.80,-801.60"/>
    </edge>
    <edge id=":J37_6" function="internal">
        <lane id=":J37_6_0" index="0" speed="6.51" length="9.03" shape="992.80,-801.60 995.25,-801.95 997.00,-803.00 998.05,-804.75 998.40,-807.20"/>
    </edge>
    <edge id=":J37_7" function="internal">
        <lane id=":J37_7_0" index="0" speed="6.51" length="9.03" shape="992.80,-798.40 995.25,-798.05 997.00,-797.00 998.05,-795.25 998.40,-792.80"/>
    </edge>
    <edge id=":J38_0" function="internal">
        <lane id=":J38_0_0" index="0" speed="3.90" length="2.58" shape="998.40,-996.80 998.30,-997.50 998.00,-998.00 997.50,-998.30 996.80,-998.40"/>
        <lane id=":J38_0_1" index="1" speed="6.08" length="7.74" shape="1001.60,-996.80 1001.30,-998.90 1000.40,-1000.40 998.90,-1001.30 996.80,-1001.60"/>
    </edge>
    <edge id=":J38_2" function="internal">
        <lane id=":J38_2_0" index="0" speed="6.08" length="7.74" shape="996.80,-1001.60 998.90,-1001.30 1000.40,-1000.40 1001.30,-998.90 1001.60,-996.80"/>
        <lane id=":J38_2_1" index="1" speed="3.90" length="2.58" shape="996.80,-998.40 997.50,-998.30 998.00,-998.00 998.30,-997.50 998.40,-996.80"/>
    </edge>
    <edge id=":J39_0" function="internal">
        <lane id=":J39_0_0" index="0" speed="6.51" length="9.03" shape="798.40,-992.80 798.05,-995.25 797.00,-997.00 795.25,-998.05 792.80,-998.40"/>
    </edge>
    <edge id=":J39_1" function="internal">
        <lane id=":J39_1_0" index="0" speed="6.51" length="9.03" shape="801.60,-992.80 801.95,-995.25 803.00,-997.00 804.75,-998.05 807.20,-998.40"/>
    </edge>
    <edge id=":J39_2" function="internal">
        <lane id=":J39_2_0" index="0" speed="6.51" length="9.03" shape="807.20,-998.40 804.75,-998.05 803.00,-997.00 801.95,-995.25 801.60,-992.80"/>
    </edge>
    <edge id=":J39_3" function="internal">
        <lane id=":J39_3_0" index="0" speed="40.00" length="14.40" shape="807.20,-998.40 792.80,-998.40"/>
        <lane id=":J39_3_1" index="1" speed="40.00" length="14.40" shape="807.20,-1001.60 792.80,-1001.60"/>
    </edge>
    <edge id=":J39_5" function="internal">
        <lane id=":J39_5_0" index="0" speed="40.00" length="14.40" shape="792.80,-1001.60 807.20,-1001.60"/>
        <lane id=":J39_5_1" index="1" speed="40.00" length="14.40" shape="792.80,-998.40 807.20,-998.40"/>
    </edge>
    <edge id=":J39_7" function="internal">
        <lane id=":J39_7_0" index="0" speed="6.51" length="3.04" shape="792.80,-998.40 795.25,-998.05 795.74,-997.76"/>
    </edge>
    <edge id=":J39_8" function="internal">
        <lane id=":J39_8_0" index="0" speed="6.51" length="5.99" shape="795.74,-997.76 797.00,-997.00 798.05,-995.25 798.40,-992.80"/>
    </edge>
    <edge id=":J40_0" function="internal">
        <lane id=":J40_0_0" index="0" speed="6.51" length="9.03" shape="798.40,-792.80 798.05,-795.25 797.00,-797.00 795.25,-798.05 792.80,-798.40"/>
    </edge>
    <edge id=":J40_1" function="internal">
        <lane id=":J40_1_0" index="0" speed="40.00" length="14.40" shape="798.40,-792.80 798.40,-807.20"/>
        <lane id=":J40_1_1" index="1" speed="40.00" length="14.40" shape="801.60,-792.80 801.60,-807.20"/>
    </edge>
    <edge id=":J40_3" function="internal">
        <lane id=":J40_3_0" index="0" speed="6.51" length="9.03" shape="801.60,-792.80 801.95,-795.25 803.00,-797.00 804.75,-798.05 807.20,-798.40"/>
    </edge>
    <edge id=":J40_4" function="internal">
        <lane id=":J40_4_0" index="0" speed="6.51" length="9.03" shape="807.20,-798.40 804.75,-798.05 803.00,-797.00 801.95,-795.25 801.60,-792.80"/>
    </edge>
    <edge id=":J40_5" function="internal">
        <lane id=":J40_5_0" index="0" speed="40.00" length="14.40" shape="807.20,-798.40 792.80,-798.40"/>
        <lane id=":J40_5_1" index="1" speed="40.00" length="14.40" shape="807.20,-801.60 792.80,-801.60"/>
    </edge>
    <edge id=":J40_7" function="internal">
        <lane id=":J40_7_0" index="0" speed="6.51" length="9.03" shape="807.20,-801.60 804.75,-801.95 803.00,-803.00 801.95,-804.75 801.60,-807.20"/>
    </edge>
    <edge id=":J40_8" function="internal">
        <lane id=":J40_8_0" index="0" speed="6.51" length="9.03" shape="801.60,-807.20 801.95,-804.75 803.00,-803.00 804.75,-801.95 807.20,-801.60"/>
    </edge>
    <edge id=":J40_9" function="internal">
        <lane id=":J40_9_0" index="0" speed="40.00" length="14.40" shape="801.60,-807.20 801.60,-792.80"/>
        <lane id=":J40_9_1" index="1" speed="40.00" length="14.40" shape="798.40,-807.20 798.40,-792.80"/>
    </edge>
    <edge id=":J40_11" function="internal">
        <lane id=":J40_11_0" index="0" speed="6.51" length="9.03" shape="798.40,-807.20 798.05,-804.75 797.00,-803.00 795.25,-801.95 792.80,-801.60"/>
    </edge>
    <edge id=":J40_12" function="internal">
        <lane id=":J40_12_0" index="0" speed="6.51" length="9.03" shape="792.80,-801.60 795.25,-801.95 797.00,-803.00 798.05,-804.75 798.40,-807.20"/>
    </edge>
    <edge id=":J40_13" function="internal">
        <lane id=":J40_13_0" index="0" speed="40.00" length="14.40" shape="792.80,-801.60 807.20,-801.60"/>
        <lane id=":J40_13_1" index="1" speed="40.00" length="14.40" shape="792.80,-798.40 807.20,-798.40"/>
    </edge>
    <edge id=":J40_15" function="internal">
        <lane id=":J40_15_0" index="0" speed="6.51" length="9.03" shape="792.80,-798.40 795.25,-798.05 797.00,-797.00 798.05,-795.25 798.40,-792.80"/>
    </edge>
    <edge id=":J41_0" function="internal">
        <lane id=":J41_0_0" index="0" speed="6.51" length="9.03" shape="598.40,-792.80 598.05,-795.25 597.00,-797.00 595.25,-798.05 592.80,-798.40"/>
    </edge>
    <edge id=":J41_1" function="internal">
        <lane id=":J41_1_0" index="0" speed="40.00" length="14.40" shape="598.40,-792.80 598.40,-807.20"/>
        <lane id=":J41_1_1" index="1" speed="40.00" length="14.40" shape="601.60,-792.80 601.60,-807.20"/>
    </edge>