<?xml version="1.0" encoding="UTF-8"?>

<!-- generated on 2025-09-09 18:49:27 by Eclipse SUMO netedit Version 1.24.0
<neteditConfiguration xmlns:xsi="http://www.w3.org/2001/XMLSchema-instance" xsi:noNamespaceSchemaLocation="http://sumo.dlr.de/xsd/neteditConfiguration.xsd">

    <input>
        <sumocfg-file value="D:\main project\final\map4\RL.sumocfg"/>
        <sumo-net-file value="D:\main project\final\map4\RL.net.xml"/>
    </input>

    <output>
        <output-file value="D:\main project\final\map4\RL.net.xml"/>
    </output>

    <processing>
        <offset.disable-normalization value="true"/>
    </processing>

    <junctions>
        <no-turnarounds value="true"/>
    </junctions>

    <netedit>
        <new-network value="false"/>
    </netedit>

</neteditConfiguration>
-->

<net version="1.20" junctionCornerDetail="5" limitTurnSpeed="5.50" xmlns:xsi="http://www.w3.org/2001/XMLSchema-instance" xsi:noNamespaceSchemaLocation="http://sumo.dlr.de/xsd/net_file.xsd">

    <location netOffset="0.00,0.00" convBoundary="-500.00,-1200.00,1500.00,0.00" origBoundary="10000000000.00,10000000000.00,-10000000000.00,-10000000000.00" projParameter="!"/>

    <edge id=":J0_0" function="internal">
        <lane id=":J0_0_0" index="0" speed="8.96" length="18.06" shape="-493.60,4.80 -498.50,4.10 -502.00,2.00 -504.10,-1.50 -504.80,-6.40"/>
        <lane id=":J0_0_1" index="1" speed="7.66" length="12.90" shape="-493.60,1.60 -497.10,1.10 -499.60,-0.40 -501.10,-2.90 -501.60,-6.40"/>
    </edge>
    <edge id=":J0_2" function="internal">
        <lane id=":J0_2_0" index="0" speed="3.90" length="2.58" shape="-495.20,-6.40 -495.10,-5.70 -494.80,-5.20 -494.30,-4.90 -493.60,-4.80"/>
        <lane id=":J0_2_1" index="1" speed="6.08" length="7.74" shape="-498.40,-6.40 -498.10,-4.30 -497.20,-2.80 -495.70,-1.90 -493.60,-1.60"/>
    </edge>
    <edge id=":J1_0" function="internal">
        <lane id=":J1_0_0" index="0" speed="40.00" length="20.80" shape="10.40,4.80 -10.40,4.80"/>
        <lane id=":J1_0_1" index="1" speed="40.00" length="20.80" shape="10.40,1.60 -10.40,1.60"/>
    </edge>
    <edge id=":J1_2" function="internal">
        <lane id=":J1_2_0" index="0" speed="9.26" length="5.01" shape="10.40,1.60 5.44,0.89"/>
    </edge>
    <edge id=":J1_8" function="internal">
        <lane id=":J1_8_0" index="0" speed="9.26" length="14.34" shape="5.44,0.89 5.15,0.85 1.40,-1.40 -0.85,-5.15 -1.60,-10.40"/>
    </edge>
    <edge id=":J1_3" function="internal">
        <lane id=":J1_3_0" index="0" speed="6.51" length="9.03" shape="4.80,-10.40 5.15,-7.95 6.20,-6.20 7.95,-5.15 10.40,-4.80"/>
    </edge>
    <edge id=":J1_4" function="internal">
        <lane id=":J1_4_0" index="0" speed="9.26" length="19.35" shape="1.60,-10.40 0.85,-5.15 -1.40,-1.40 -5.15,0.85 -10.40,1.60"/>
    </edge>
    <edge id=":J1_5" function="internal">
        <lane id=":J1_5_0" index="0" speed="6.51" length="9.03" shape="-10.40,-4.80 -7.95,-5.15 -6.20,-6.20 -5.15,-7.95 -4.80,-10.40"/>
    </edge>
    <edge id=":J1_6" function="internal">
        <lane id=":J1_6_0" index="0" speed="40.00" length="20.80" shape="-10.40,-4.80 10.40,-4.80"/>
        <lane id=":J1_6_1" index="1" speed="40.00" length="20.80" shape="-10.40,-1.60 10.40,-1.60"/>
    </edge>
    <edge id=":J10_0" function="internal">
        <lane id=":J10_0_0" index="0" speed="40.00" length="20.80" shape="-504.80,-789.60 -504.80,-810.40"/>
        <lane id=":J10_0_1" index="1" speed="40.00" length="20.80" shape="-501.60,-789.60 -501.60,-810.40"/>
    </edge>
    <edge id=":J10_2" function="internal">
        <lane id=":J10_2_0" index="0" speed="9.26" length="5.01" shape="-501.60,-789.60 -500.89,-794.56"/>
    </edge>
    <edge id=":J10_8" function="internal">
        <lane id=":J10_8_0" index="0" speed="9.26" length="14.34" shape="-500.89,-794.56 -500.85,-794.85 -498.60,-798.60 -494.85,-800.85 -489.60,-801.60"/>
    </edge>
    <edge id=":J10_3" function="internal">
        <lane id=":J10_3_0" index="0" speed="6.51" length="9.03" shape="-489.60,-795.20 -492.05,-794.85 -493.80,-793.80 -494.85,-792.05 -495.20,-789.60"/>
    </edge>
    <edge id=":J10_4" function="internal">
        <lane id=":J10_4_0" index="0" speed="9.26" length="19.35" shape="-489.60,-798.40 -494.85,-799.15 -498.60,-801.40 -500.85,-805.15 -501.60,-810.40"/>
    </edge>
    <edge id=":J10_5" function="internal">
        <lane id=":J10_5_0" index="0" speed="6.51" length="9.03" shape="-495.20,-810.40 -494.85,-807.95 -493.80,-806.20 -492.05,-805.15 -489.60,-804.80"/>
    </edge>
    <edge id=":J10_6" function="internal">
        <lane id=":J10_6_0" index="0" speed="40.00" length="20.80" shape="-495.20,-810.40 -495.20,-789.60"/>
        <lane id=":J10_6_1" index="1" speed="40.00" length="20.80" shape="-498.40,-810.40 -498.40,-789.60"/>
    </edge>
    <edge id=":J11_0" function="internal">
        <lane id=":J11_0_0" index="0" speed="40.00" length="20.80" shape="-504.80,-389.60 -504.80,-410.40"/>
        <lane id=":J11_0_1" index="1" speed="40.00" length="20.80" shape="-501.60,-389.60 -501.60,-410.40"/>
    </edge>
    <edge id=":J11_2" function="internal">
        <lane id=":J11_2_0" index="0" speed="9.26" length="5.01" shape="-501.60,-389.60 -500.89,-394.56"/>
    </edge>
    <edge id=":J11_8" function="internal">
        <lane id=":J11_8_0" index="0" speed="9.26" length="14.34" shape="-500.89,-394.56 -500.85,-394.85 -498.60,-398.60 -494.85,-400.85 -489.60,-401.60"/>
    </edge>
    <edge id=":J11_3" function="internal">
        <lane id=":J11_3_0" index="0" speed="6.51" length="9.03" shape="-489.60,-395.20 -492.05,-394.85 -493.80,-393.80 -494.85,-392.05 -495.20,-389.60"/>
    </edge>
    <edge id=":J11_4" function="internal">
        <lane id=":J11_4_0" index="0" speed="9.26" length="19.35" shape="-489.60,-398.40 -494.85,-399.15 -498.60,-401.40 -500.85,-405.15 -501.60,-410.40"/>
    </edge>
    <edge id=":J11_5" function="internal">
        <lane id=":J11_5_0" index="0" speed="6.51" length="9.03" shape="-495.20,-410.40 -494.85,-407.95 -493.80,-406.20 -492.05,-405.15 -489.60,-404.80"/>
    </edge>
    <edge id=":J11_6" function="internal">
        <lane id=":J11_6_0" index="0" speed="40.00" length="20.80" shape="-495.20,-410.40 -495.20,-389.60"/>
        <lane id=":J11_6_1" index="1" speed="40.00" length="20.80" shape="-498.40,-410.40 -498.40,-389.60"/>
    </edge>
    <edge id=":J12_0" function="internal">
        <lane id=":J12_0_0" index="0" speed="6.51" length="9.03" shape="995.20,-389.60 994.85,-392.05 993.80,-393.80 992.05,-394.85 989.60,-395.20"/>
    </edge>
    <edge id=":J12_1" function="internal">
        <lane id=":J12_1_0" index="0" speed="40.00" length="20.80" shape="995.20,-389.60 995.20,-410.40"/>
        <lane id=":J12_1_1" index="1" speed="40.00" length="20.80" shape="998.40,-389.60 998.40,-410.40"/>
    </edge>
    <edge id=":J12_3" function="internal">
        <lane id=":J12_3_0" index="0" speed="9.26" length="5.01" shape="998.40,-389.60 999.11,-394.56"/>
    </edge>
    <edge id=":J12_16" function="internal">
        <lane id=":J12_16_0" index="0" speed="9.26" length="14.34" shape="999.11,-394.56 999.15,-394.85 1001.40,-398.60 1005.15,-400.85 1010.40,-401.60"/>
    </edge>
    <edge id=":J12_4" function="internal">
        <lane id=":J12_4_0" index="0" speed="6.51" length="9.03" shape="1010.40,-395.20 1007.95,-394.85 1006.20,-393.80 1005.15,-392.05 1004.80,-389.60"/>
    </edge>
    <edge id=":J12_5" function="internal">
        <lane id=":J12_5_0" index="0" speed="40.00" length="20.80" shape="1010.40,-395.20 989.60,-395.20"/>
        <lane id=":J12_5_1" index="1" speed="40.00" length="20.80" shape="1010.40,-398.40 989.60,-398.40"/>
    </edge>
    <edge id=":J12_7" function="internal">
        <lane id=":J12_7_0" index="0" speed="9.26" length="5.01" shape="1010.40,-398.40 1005.44,-399.11"/>
    </edge>
    <edge id=":J12_17" function="internal">
        <lane id=":J12_17_0" index="0" speed="9.26" length="14.34" shape="1005.44,-399.11 1005.15,-399.15 1001.40,-401.40 999.15,-405.15 998.40,-410.40"/>
    </edge>
    <edge id=":J12_8" function="internal">
        <lane id=":J12_8_0" index="0" speed="6.51" length="9.03" shape="1004.80,-410.40 1005.15,-407.95 1006.20,-406.20 1007.95,-405.15 1010.40,-404.80"/>
    </edge>
    <edge id=":J12_9" function="internal">
        <lane id=":J12_9_0" index="0" speed="40.00" length="20.80" shape="1004.80,-410.40 1004.80,-389.60"/>
        <lane id=":J12_9_1" index="1" speed="40.00" length="20.80" shape="1001.60,-410.40 1001.60,-389.60"/>
    </edge>
    <edge id=":J12_11" function="internal">
        <lane id=":J12_11_0" index="0" speed="9.26" length="5.01" shape="1001.60,-410.40 1000.89,-405.44"/>
    </edge>
    <edge id=":J12_18" function="internal">
        <lane id=":J12_18_0" index="0" speed="9.26" length="14.34" shape="1000.89,-405.44 1000.85,-405.15 998.60,-401.40 994.85,-399.15 989.60,-398.40"/>
    </edge>
    <edge id=":J12_12" function="internal">
        <lane id=":J12_12_0" index="0" speed="6.51" length="9.03" shape="989.60,-404.80 992.05,-405.15 993.80,-406.20 994.85,-407.95 995.20,-410.40"/>
    </edge>
    <edge id=":J12_13" function="internal">
        <lane id=":J12_13_0" index="0" speed="40.00" length="20.80" shape="989.60,-404.80 1010.40,-404.80"/>
        <lane id=":J12_13_1" index="1" speed="40.00" length="20.80" shape="989.60,-401.60 1010.40,-401.60"/>
    </edge>
    <edge id=":J12_15" function="internal">
        <lane id=":J12_15_0" index="0" speed="9.26" length="5.01" shape="989.60,-401.60 994.56,-400.89"/>
    </edge>
    <edge id=":J12_19" function="internal">
        <lane id=":J12_19_0" index="0" speed="9.26" length="14.34" shape="994.56,-400.89 994.85,-400.85 998.60,-398.60 1000.85,-394.85 1001.60,-389.60"/>
    </edge>
    <edge id=":J13_0" function="internal">
        <lane id=":J13_0_0" index="0" speed="6.51" length="9.03" shape="495.20,-389.60 494.85,-392.05 493.80,-393.80 492.05,-394.85 489.60,-395.20"/>
    </edge>
    <edge id=":J13_1" function="internal">
        <lane id=":J13_1_0" index="0" speed="40.00" length="20.80" shape="495.20,-389.60 495.20,-410.40"/>
        <lane id=":J13_1_1" index="1" speed="40.00" length="20.80" shape="498.40,-389.60 498.40,-410.40"/>
    </edge>
    <edge id=":J13_3" function="internal">
        <lane id=":J13_3_0" index="0" speed="9.26" length="5.01" shape="498.40,-389.60 499.11,-394.56"/>
    </edge>
    <edge id=":J13_16" function="internal">
        <lane id=":J13_16_0" index="0" speed="9.26" length="14.34" shape="499.11,-394.56 499.15,-394.85 501.40,-398.60 505.15,-400.85 510.40,-401.60"/>
    </edge>
    <edge id=":J13_4" function="internal">
        <lane id=":J13_4_0" index="0" speed="6.51" length="9.03" shape="510.40,-395.20 507.95,-394.85 506.20,-393.80 505.15,-392.05 504.80,-389.60"/>
    </edge>
    <edge id=":J13_5" function="internal">
        <lane id=":J13_5_0" index="0" speed="40.00" length="20.80" shape="510.40,-395.20 489.60,-395.20"/>
        <lane id=":J13_5_1" index="1" speed="40.00" length="20.80" shape="510.40,-398.40 489.60,-398.40"/>
    </edge>
    <edge id=":J13_7" function="internal">
        <lane id=":J13_7_0" index="0" speed="9.26" length="5.01" shape="510.40,-398.40 505.44,-399.11"/>
    </edge>
    <edge id=":J13_17" function="internal">
        <lane id=":J13_17_0" index="0" speed="9.26" length="14.34" shape="505.44,-399.11 505.15,-399.15 501.40,-401.40 499.15,-405.15 498.40,-410.40"/>
    </edge>
    <edge id=":J13_8" function="internal">
        <lane id=":J13_8_0" index="0" speed="6.51" length="9.03" shape="504.80,-410.40 505.15,-407.95 506.20,-406.20 507.95,-405.15 510.40,-404.80"/>
    </edge>
    <edge id=":J13_9" function="internal">
        <lane id=":J13_9_0" index="0" speed="40.00" length="20.80" shape="504.80,-410.40 504.80,-389.60"/>
        <lane id=":J13_9_1" index="1" speed="40.00" length="20.80" shape="501.60,-410.40 501.60,-389.60"/>
    </edge>
    <edge id=":J13_11" function="internal">
        <lane id=":J13_11_0" index="0" speed="9.26" length="5.01" shape="501.60,-410.40 500.89,-405.44"/>
    </edge>
    <edge id=":J13_18" function="internal">
        <lane id=":J13_18_0" index="0" speed="9.26" length="14.34" shape="500.89,-405.44 500.85,-405.15 498.60,-401.40 494.85,-399.15 489.60,-398.40"/>
    </edge>
    <edge id=":J13_12" function="internal">
        <lane id=":J13_12_0" index="0" speed="6.51" length="9.03" shape="489.60,-404.80 492.05,-405.15 493.80,-406.20 494.85,-407.95 495.20,-410.40"/>
    </edge>
    <edge id=":J13_13" function="internal">
        <lane id=":J13_13_0" index="0" speed="40.00" length="20.80" shape="489.60,-404.80 510.40,-404.80"/>
        <lane id=":J13_13_1" index="1" speed="40.00" length="20.80" shape="489.60,-401.60 510.40,-401.60"/>
    </edge>
    <edge id=":J13_15" function="internal">
        <lane id=":J13_15_0" index="0" speed="9.26" length="5.01" shape="489.60,-401.60 494.56,-400.89"/>
    </edge>
    <edge id=":J13_19" function="internal">
        <lane id=":J13_19_0" index="0" speed="9.26" length="14.34" shape="494.56,-400.89 494.85,-400.85 498.60,-398.60 500.85,-394.85 501.60,-389.60"/>
    </edge>
    <edge id=":J14_0" function="internal">
        <lane id=":J14_0_0" index="0" speed="6.51" length="9.03" shape="-4.80,-389.60 -5.15,-392.05 -6.20,-393.80 -7.95,-394.85 -10.40,-395.20"/>
    </edge>
    <edge id=":J14_1" function="internal">
        <lane id=":J14_1_0" index="0" speed="40.00" length="20.80" shape="-4.80,-389.60 -4.80,-410.40"/>
        <lane id=":J14_1_1" index="1" speed="40.00" length="20.80" shape="-1.60,-389.60 -1.60,-410.40"/>
    </edge>
    <edge id=":J14_3" function="internal">
        <lane id=":J14_3_0" index="0" speed="9.26" length="19.35" shape="-1.60,-389.60 -0.85,-394.85 1.40,-398.60 5.15,-400.85 10.40,-401.60"/>
    </edge>
    <edge id=":J14_4" function="internal">
        <lane id=":J14_4_0" index="0" speed="6.51" length="9.03" shape="10.40,-395.20 7.95,-394.85 6.20,-393.80 5.15,-392.05 4.80,-389.60"/>
    </edge>
    <edge id=":J14_5" function="internal">
        <lane id=":J14_5_0" index="0" speed="40.00" length="20.80" shape="10.40,-395.20 -10.40,-395.20"/>
        <lane id=":J14_5_1" index="1" speed="40.00" length="20.80" shape="10.40,-398.40 -10.40,-398.40"/>
    </edge>
    <edge id=":J14_7" function="internal">
        <lane id=":J14_7_0" index="0" speed="9.26" length="19.35" shape="10.40,-398.40 5.15,-399.15 1.40,-401.40 -0.85,-405.15 -1.60,-410.40"/>
    </edge>
    <edge id=":J14_8" function="internal">
        <lane id=":J14_8_0" index="0" speed="6.51" length="9.03" shape="4.80,-410.40 5.15,-407.95 6.20,-406.20 7.95,-405.15 10.40,-404.80"/>
    </edge>
    <edge id=":J14_9" function="internal">
        <lane id=":J14_9_0" index="0" speed="40.00" length="20.80" shape="4.80,-410.40 4.80,-389.60"/>
        <lane id=":J14_9_1" index="1" speed="40.00" length="20.80" shape="1.60,-410.40 1.60,-389.60"/>
    </edge>
    <edge id=":J14_11" function="internal">
        <lane id=":J14_11_0" index="0" speed="9.26" length="19.35" shape="1.60,-410.40 0.85,-405.15 -1.40,-401.40 -5.15,-399.15 -10.40,-398.40"/>
    </edge>
    <edge id=":J14_12" function="internal">
        <lane id=":J14_12_0" index="0" speed="6.51" length="9.03" shape="-10.40,-404.80 -7.95,-405.15 -6.20,-406.20 -5.15,-407.95 -4.80,-410.40"/>
    </edge>
    <edge id=":J14_13" function="internal">
        <lane id=":J14_13_0" index="0" speed="40.00" length="20.80" shape="-10.40,-404.80 10.40,-404.80"/>
        <lane id=":J14_13_1" index="1" speed="40.00" length="20.80" shape="-10.40,-401.60 10.40,-401.60"/>
    </edge>
    <edge id=":J14_15" function="internal">
        <lane id=":J14_15_0" index="0" speed="9.26" length="19.35" shape="-10.40,-401.60 -5.15,-400.85 -1.40,-398.60 0.85,-394.85 1.60,-389.60"/>
    </edge>
    <edge id=":J19_0" function="internal">
        <lane id=":J19_0_0" index="0" speed="3.90" length="2.58" shape="1495.20,-1193.60 1495.10,-1194.30 1494.80,-1194.80 1494.30,-1195.10 1493.60,-1195.20"/>
        <lane id=":J19_0_1" index="1" speed="6.08" length="7.74" shape="1498.40,-1193.60 1498.10,-1195.70 1497.20,-1197.20 1495.70,-1198.10 1493.60,-1198.40"/>
    </edge>
    <edge id=":J19_2" function="internal">
        <lane id=":J19_2_0" index="0" speed="8.96" length="18.06" shape="1493.60,-1204.80 1498.50,-1204.10 1502.00,-1202.00 1504.10,-1198.50 1504.80,-1193.60"/>
        <lane id=":J19_2_1" index="1" speed="7.66" length="12.90" shape="1493.60,-1201.60 1497.10,-1201.10 1499.60,-1199.60 1501.10,-1197.10 1501.60,-1193.60"/>
    </edge>
    <edge id=":J2_0" function="internal">
        <lane id=":J2_0_0" index="0" speed="40.00" length="20.80" shape="510.40,4.80 489.60,4.80"/>
        <lane id=":J2_0_1" index="1" speed="40.00" length="20.80" shape="510.40,1.60 489.60,1.60"/>
    </edge>
    <edge id=":J2_2" function="internal">
        <lane id=":J2_2_0" index="0" speed="9.26" length="5.01" shape="510.40,1.60 505.44,0.89"/>
    </edge>
    <edge id=":J2_8" function="internal">
        <lane id=":J2_8_0" index="0" speed="9.26" length="14.34" shape="505.44,0.89 505.15,0.85 501.40,-1.40 499.15,-5.15 498.40,-10.40"/>
    </edge>
    <edge id=":J2_3" function="internal">
        <lane id=":J2_3_0" index="0" speed="6.51" length="9.03" shape="504.80,-10.40 505.15,-7.95 506.20,-6.20 507.95,-5.15 510.40,-4.80"/>
    </edge>
    <edge id=":J2_4" function="internal">
        <lane id=":J2_4_0" index="0" speed="9.26" length="19.35" shape="501.60,-10.40 500.85,-5.15 498.60,-1.40 494.85,0.85 489.60,1.60"/>
    </edge>
    <edge id=":J2_5" function="internal">
        <lane id=":J2_5_0" index="0" speed="6.51" length="9.03" shape="489.60,-4.80 492.05,-5.15 493.80,-6.20 494.85,-7.95 495.20,-10.40"/>
    </edge>
    <edge id=":J2_6" function="internal">
        <lane id=":J2_6_0" index="0" speed="40.00" length="20.80" shape="489.60,-4.80 510.40,-4.80"/>
        <lane id=":J2_6_1" index="1" speed="40.00" length="20.80" shape="489.60,-1.60 510.40,-1.60"/>
    </edge>
    <edge id=":J20_0" function="internal">
        <lane id=":J20_0_0" index="0" speed="6.51" length="9.03" shape="995.20,-1189.60 994.85,-1192.05 993.80,-1193.80 992.05,-1194.85 989.60,-1195.20"/>
    </edge>
    <edge id=":J20_1" function="internal">
        <lane id=":J20_1_0" index="0" speed="9.26" length="19.35" shape="998.40,-1189.60 999.15,-1194.85 1001.40,-1198.60 1005.15,-1200.85 1010.40,-1201.60"/>
    </edge>
    <edge id=":J20_2" function="internal">
        <lane id=":J20_2_0" index="0" speed="6.51" length="9.03" shape="1010.40,-1195.20 1007.95,-1194.85 1006.20,-1193.80 1005.15,-1192.05 1004.80,-1189.60"/>
    </edge>
    <edge id=":J20_3" function="internal">
        <lane id=":J20_3_0" index="0" speed="40.00" length="20.80" shape="1010.40,-1195.20 989.60,-1195.20"/>
        <lane id=":J20_3_1" index="1" speed="40.00" length="20.80" shape="1010.40,-1198.40 989.60,-1198.40"/>
    </edge>
    <edge id=":J20_5" function="internal">
        <lane id=":J20_5_0" index="0" speed="40.00" length="20.80" shape="989.60,-1204.80 1010.40,-1204.80"/>
        <lane id=":J20_5_1" index="1" speed="40.00" length="20.80" shape="989.60,-1201.60 1010.40,-1201.60"/>
    </edge>
    <edge id=":J20_7" function="internal">
        <lane id=":J20_7_0" index="0" speed="9.26" length="5.01" shape="989.60,-1201.60 994.56,-1200.89"/>
    </edge>
    <edge id=":J20_8" function="internal">
        <lane id=":J20_8_0" index="0" speed="9.26" length="14.34" shape="994.56,-1200.89 994.85,-1200.85 998.60,-1198.60 1000.85,-1194.85 1001.60,-1189.60"/>
    </edge>
    <edge id=":J21_0" function="internal">
        <lane id=":J21_0_0" index="0" speed="6.51" length="9.03" shape="495.20,-1189.60 494.85,-1192.05 493.80,-1193.80 492.05,-1194.85 489.60,-1195.20"/>
    </edge>
    <edge id=":J21_1" function="internal">
        <lane id=":J21_1_0" index="0" speed="9.26" length="19.35" shape="498.40,-1189.60 499.15,-1194.85 501.40,-1198.60 505.15,-1200.85 510.40,-1201.60"/>
    </edge>
    <edge id=":J21_2" function="internal">
        <lane id=":J21_2_0" index="0" speed="6.51" length="9.03" shape="510.40,-1195.20 507.95,-1194.85 506.20,-1193.80 505.15,-1192.05 504.80,-1189.60"/>
    </edge>
    <edge id=":J21_3" function="internal">
        <lane id=":J21_3_0" index="0" speed="40.00" length="20.80" shape="510.40,-1195.20 489.60,-1195.20"/>
        <lane id=":J21_3_1" index="1" speed="40.00" length="20.80" shape="510.40,-1198.40 489.60,-1198.40"/>
    </edge>
    <edge id=":J21_5" function="internal">
        <lane id=":J21_5_0" index="0" speed="40.00" length="20.80" shape="489.60,-1204.80 510.40,-1204.80"/>
        <lane id=":J21_5_1" index="1" speed="40.00" length="20.80" shape="489.60,-1201.60 510.40,-1201.60"/>
    </edge>
    <edge id=":J21_7" function="internal">
        <lane id=":J21_7_0" index="0" speed="9.26" length="5.01" shape="489.60,-1201.60 494.56,-1200.89"/>
    </edge>
    <edge id=":J21_8" function="internal">
        <lane id=":J21_8_0" index="0" speed="9.26" length="14.34" shape="494.56,-1200.89 494.85,-1200.85 498.60,-1198.60 500.85,-1194.85 501.60,-1189.60"/>
    </edge>
    <edge id=":J22_0" function="internal">
        <lane id=":J22_0_0" index="0" speed="6.51" length="9.03" shape="-4.80,-1189.60 -5.15,-1192.05 -6.20,-1193.80 -7.95,-1194.85 -10.40,-1195.20"/>
    </edge>
    <edge id=":J22_1" function="internal">
        <lane id=":J22_1_0" index="0" speed="9.26" length="19.35" shape="-1.60,-1189.60 -0.85,-1194.85 1.40,-1198.60 5.15,-1200.85 10.40,-1201.60"/>
    </edge>
    <edge id=":J22_2" function="internal">
        <lane id=":J22_2_0" index="0" speed="6.51" length="9.03" shape="10.40,-1195.20 7.95,-1194.85 6.20,-1193.80 5.15,-1192.05 4.80,-1189.60"/>
    </edge>
    <edge id=":J22_3" function="internal">
        <lane id=":J22_3_0" index="0" speed="40.00" length="20.80" shape="10.40,-1195.20 -10.40,-1195.20"/>
        <lane id=":J22_3_1" index="1" speed="40.00" length="20.80" shape="10.40,-1198.40 -10.40,-1198.40"/>
    </edge>
    <edge id=":J22_5" function="internal">
        <lane id=":J22_5_0" index="0" speed="40.00" length="20.80" shape="-10.40,-1204.80 10.40,-1204.80"/>
        <lane id=":J22_5_1" index="1" speed="40.00" length="20.80" shape="-10.40,-1201.60 10.40,-1201.60"/>
    </edge>
    <edge id=":J22_7" function="internal">
        <lane id=":J22_7_0" index="0" speed="9.26" length="5.01" shape="-10.40,-1201.60 -5.44,-1200.89"/>
    </edge>
    <edge id=":J22_8" function="internal">
        <lane id=":J22_8_0" index="0" speed="9.26" length="14.34" shape="-5.44,-1200.89 -5.15,-1200.85 -1.40,-1198.60 0.85,-1194.85 1.60,-1189.60"/>
    </edge>
    <edge id=":J23_0" function="internal">
        <lane id=":J23_0_0" index="0" speed="8.96" length="18.06" shape="-504.80,-1193.60 -504.10,-1198.50 -502.00,-1202.00 -498.50,-1204.10 -493.60,-1204.80"/>
        <lane id=":J23_0_1" index="1" speed="7.66" length="12.90" shape="-501.60,-1193.60 -501.10,-1197.10 -499.60,-1199.60 -497.10,-1201.10 -493.60,-1201.60"/>
    </edge>
    <edge id=":J23_2" function="internal">
        <lane id=":J23_2_0" index="0" speed="3.90" length="2.58" shape="-493.60,-1195.20 -494.30,-1195.10 -494.80,-1194.80 -495.10,-1194.30 -495.20,-1193.60"/>
        <lane id=":J23_2_1" index="1" speed="6.08" length="7.74" shape="-493.60,-1198.40 -495.70,-1198.10 -497.20,-1197.20 -498.10,-1195.70 -498.40,-1193.60"/>
    </edge>
    <edge id=":J3_0" function="internal">
        <lane id=":J3_0_0" index="0" speed="40.00" length="20.80" shape="1010.40,4.80 989.60,4.80"/>
        <lane id=":J3_0_1" index="1" speed="40.00" length="20.80" shape="1010.40,1.60 989.60,1.60"/>
    </edge>
    <edge id=":J3_2" function="internal">
        <lane id=":J3_2_0" index="0" speed="9.26" length="5.01" shape="1010.40,1.60 1005.44,0.89"/>
    </edge>
    <edge id=":J3_8" function="internal">
        <lane id=":J3_8_0" index="0" speed="9.26" length="14.34" shape="1005.44,0.89 1005.15,0.85 1001.40,-1.40 999.15,-5.15 998.40,-10.40"/>
    </edge>
    <edge id=":J3_3" function="internal">
        <lane id=":J3_3_0" index="0" speed="6.51" length="9.03" shape="1004.80,-10.40 1005.15,-7.95 1006.20,-6.20 1007.95,-5.15 1010.40,-4.80"/>
    </edge>
    <edge id=":J3_4" function="internal">
        <lane id=":J3_4_0" index="0" speed="9.26" length="19.35" shape="1001.60,-10.40 1000.85,-5.15 998.60,-1.40 994.85,0.85 989.60,1.60"/>
    </edge>
    <edge id=":J3_5" function="internal">
        <lane id=":J3_5_0" index="0" speed="6.51" length="9.03" shape="989.60,-4.80 992.05,-5.15 993.80,-6.20 994.85,-7.95 995.20,-10.40"/>
    </edge>
    <edge id=":J3_6" function="internal">
        <lane id=":J3_6_0" index="0" speed="40.00" length="20.80" shape="989.60,-4.80 1010.40,-4.80"/>
        <lane id=":J3_6_1" index="1" speed="40.00" length="20.80" shape="989.60,-1.60 1010.40,-1.60"/>
    </edge>
    <edge id=":J4_0" function="internal">
        <lane id=":J4_0_0" index="0" speed="8.96" length="18.06" shape="1504.80,-6.40 1504.10,-1.50 1502.00,2.00 1498.50,4.10 1493.60,4.80"/>
        <lane id=":J4_0_1" index="1" speed="7.66" length="12.90" shape="1501.60,-6.40 1501.10,-2.90 1499.60,-0.40 1497.10,1.10 1493.60,1.60"/>
    </edge>
    <edge id=":J4_2" function="internal">
        <lane id=":J4_2_0" index="0" speed="3.90" length="2.58" shape="1493.60,-4.80 1494.30,-4.90 1494.80,-5.20 1495.10,-5.70 1495.20,-6.40"/>
        <lane id=":J4_2_1" index="1" speed="6.08" length="7.74" shape="1493.60,-1.60 1495.70,-1.90 1497.20,-2.80 1498.10,-4.30 1498.40,-6.40"/>
    </edge>
    <edge id=":J5_0" function="internal">
        <lane id=":J5_0_0" index="0" speed="6.51" length="9.03" shape="1495.20,-389.60 1494.85,-392.05 1493.80,-393.80 1492.05,-394.85 1489.60,-395.20"/>
    </edge>
    <edge id=":J5_1" function="internal">
        <lane id=":J5_1_0" index="0" speed="40.00" length="20.80" shape="1495.20,-389.60 1495.20,-410.40"/>
        <lane id=":J5_1_1" index="1" speed="40.00" length="20.80" shape="1498.40,-389.60 1498.40,-410.40"/>
    </edge>
    <edge id=":J5_3" function="internal">
        <lane id=":J5_3_0" index="0" speed="40.00" length="20.80" shape="1504.80,-410.40 1504.80,-389.60"/>
        <lane id=":J5_3_1" index="1" speed="40.00" length="20.80" shape="1501.60,-410.40 1501.60,-389.60"/>
    </edge>
    <edge id=":J5_5" function="internal">
        <lane id=":J5_5_0" index="0" speed="9.26" length="5.01" shape="1501.60,-410.40 1500.89,-405.44"/>
    </edge>
    <edge id=":J5_8" function="internal">
        <lane id=":J5_8_0" index="0" speed="9.26" length="14.34" shape="1500.89,-405.44 1500.85,-405.15 1498.60,-401.40 1494.85,-399.15 1489.60,-398.40"/>
    </edge>
    <edge id=":J5_6" function="internal">
        <lane id=":J5_6_0" index="0" speed="6.51" length="9.03" shape="1489.60,-404.80 1492.05,-405.15 1493.80,-406.20 1494.85,-407.95 1495.20,-410.40"/>
    </edge>
    <edge id=":J5_7" function="internal">
        <lane id=":J5_7_0" index="0" speed="9.26" length="19.35" shape="1489.60,-401.60 1494.85,-400.85 1498.60,-398.60 1500.85,-394.85 1501.60,-389.60"/>
    </edge>
    <edge id=":J6_0" function="internal">
        <lane id=":J6_0_0" index="0" speed="6.51" length="9.03" shape="1495.20,-789.60 1494.85,-792.05 1493.80,-793.80 1492.05,-794.85 1489.60,-795.20"/>
    </edge>
    <edge id=":J6_1" function="internal">
        <lane id=":J6_1_0" index="0" speed="40.00" length="20.80" shape="1495.20,-789.60 1495.20,-810.40"/>
        <lane id=":J6_1_1" index="1" speed="40.00" length="20.80" shape="1498.40,-789.60 1498.40,-810.40"/>
    </edge>
    <edge id=":J6_3" function="internal">
        <lane id=":J6_3_0" index="0" speed="40.00" length="20.80" shape="1504.80,-810.40 1504.80,-789.60"/>
        <lane id=":J6_3_1" index="1" speed="40.00" length="20.80" shape="1501.60,-810.40 1501.60,-789.60"/>
    </edge>
    <edge id=":J6_5" function="internal">
        <lane id=":J6_5_0" index="0" speed="9.26" length="5.01" shape="1501.60,-810.40 1500.89,-805.44"/>
    </edge>
    <edge id=":J6_8" function="internal">
        <lane id=":J6_8_0" index="0" speed="9.26" length="14.34" shape="1500.89,-805.44 1500.85,-805.15 1498.60,-801.40 1494.85,-799.15 1489.60,-798.40"/>
    </edge>
    <edge id=":J6_6" function="internal">
        <lane id=":J6_6_0" index="0" speed="6.51" length="9.03" shape="1489.60,-804.80 1492.05,-805.15 1493.80,-806.20 1494.85,-807.95 1495.20,-810.40"/>
    </edge>
    <edge id=":J6_7" function="internal">
        <lane id=":J6_7_0" index="0" speed="9.26" length="19.35" shape="1489.60,-801.60 1494.85,-800.85 1498.60,-798.60 1500.85,-794.85 1501.60,-789.60"/>
    </edge>
    <edge id=":J7_0" function="internal">
        <lane id=":J7_0_0" index="0" speed="6.51" length="9.03" shape="995.20,-789.60 994.85,-792.05 993.80,-793.80 992.05,-794.85 989.60,-795.20"/>
    </edge>
    <edge id=":J7_1" function="internal">
        <lane id=":J7_1_0" index="0" speed="40.00" length="20.80" shape="995.20,-789.60 995.20,-810.40"/>
        <lane id=":J7_1_1" index="1" speed="40.00" length="20.80" shape="998.40,-789.60 998.40,-810.40"/>
    </edge>
    <edge id=":J7_3" function="internal">
        <lane id=":J7_3_0" index="0" speed="9.26" length="5.01" shape="998.40,-789.60 999.11,-794.56"/>
    </edge>
    <edge id=":J7_16" function="internal">
        <lane id=":J7_16_0" index="0" speed="9.26" length="14.34" shape="999.11,-794.56 999.15,-794.85 1001.40,-798.60 1005.15,-800.85 1010.40,-801.60"/>
    </edge>
    <edge id=":J7_4" function="internal">
        <lane id=":J7_4_0" index="0" speed="6.51" length="9.03" shape="1010.40,-795.20 1007.95,-794.85 1006.20,-793.80 1005.15,-792.05 1004.80,-789.60"/>
    </edge>
    <edge id=":J7_5" function="internal">
        <lane id=":J7_5_0" index="0" speed="40.00" length="20.80" shape="1010.40,-795.20 989.60,-795.20"/>
        <lane id=":J7_5_1" index="1" speed="40.00" length="20.80" shape="1010.40,-798.40 989.60,-798.40"/>
    </edge>
    <edge id=":J7_7" function="internal">