<?xml version="1.0" encoding="UTF-8"?>

<!-- generated on 2025-09-09 20:19:53 by Eclipse SUMO netedit Version 1.24.0
<neteditConfiguration xmlns:xsi="http://www.w3.org/2001/XMLSchema-instance" xsi:noNamespaceSchemaLocation="http://sumo.dlr.de/xsd/neteditConfiguration.xsd">

    <input>
        <sumocfg-file value=".\RL.sumocfg"/>
        <additional-files value=".\RL.add.xml"/>
        <route-files value=".\trips.trips.xml"/>
        <sumo-net-file value=".\RL.net.xml"/>
    </input>

    <output>
        <output-file value=".\RL.net.xml"/>
    </output>

    <processing>
        <geometry.min-radius.fix.railways value="false"/>
        <geometry.avoid-overlap value="false"/>
        <geometry.max-grade.fix value="false"/>
        <offset.disable-normalization value="true"/>
        <lefthand value="0"/>
    </processing>

    <junctions>
        <no-turnarounds value="true"/>
        <junctions.corner-detail value="5"/>
        <junctions.limit-turn-speed value="5.50"/>
        <rectangular-lane-cut value="0"/>
    </junctions>

    <pedestrian>
        <walkingareas value="0"/>
    </pedestrian>

</neteditConfiguration>
-->

<net version="1.20" junctionCornerDetail="5" limitTurnSpeed="5.50" avoidOverlap="0" xmlns:xsi="http://www.w3.org/2001/XMLSchema-instance" xsi:noNamespaceSchemaLocation="http://sumo.dlr.de/xsd/net_file.xsd">

    <location netOffset="0.00,0.00" convBoundary="-200.00,-600.00,800.00,0.00" origBoundary="-10000000000.00,-10000000000.00,10000000000.00,10000000000.00" projParameter="!"/>

    <edge id=":J0_0" function="internal">
        <lane id=":J0_0_0" index="0" speed="8.96" length="18.06" shape="-193.60,4.80 -198.50,4.10 -202.00,2.00 -204.10,-1.50 -204.80,-6.40"/>
        <lane id=":J0_0_1" index="1" speed="7.66" length="12.90" shape="-193.60,1.60 -197.10,1.10 -199.60,-0.40 -201.10,-2.90 -201.60,-6.40"/>
    </edge>
    <edge id=":J0_2" function="internal">
        <lane id=":J0_2_0" index="0" speed="3.90" length="2.58" shape="-195.20,-6.40 -195.10,-5.70 -194.80,-5.20 -194.30,-4.90 -193.60,-4.80"/>
        <lane id=":J0_2_1" index="1" speed="6.08" length="7.74" shape="-198.40,-6.40 -198.10,-4.30 -197.20,-2.80 -195.70,-1.90 -193.60,-1.60"/>
    </edge>
    <edge id=":J1_0" function="internal">
        <lane id=":J1_0_0" index="0" speed="40.00" length="20.80" shape="10.40,4.80 -10.40,4.80"/>
        <lane id=":J1_0_1" index="1" speed="40.00" length="20.80" shape="10.40,1.60 -10.40,1.60"/>
    </edge>
    <edge id=":J1_2" function="internal">
        <lane id=":J1_2_0" index="0" speed="9.26" length="5.01" shape="10.40,1.60 5.44,0.89"/>
    </edge>
    <edge id=":J1_8" function="internal">
        <lane id=":J1_8_0" index="0" speed="9.26" length="14.34" shape="5.44,0.89 5.15,0.85 1.40,-1.40 -0.85,-5.15 -1.60,-10.40"/>
    </edge>
    <edge id=":J1_3" function="internal">
        <lane id=":J1_3_0" index="0" speed="6.51" length="9.03" shape="4.80,-10.40 5.15,-7.95 6.20,-6.20 7.95,-5.15 10.40,-4.80"/>
    </edge>
    <edge id=":J1_4" function="internal">
        <lane id=":J1_4_0" index="0" speed="9.26" length="19.35" shape="1.60,-10.40 0.85,-5.15 -1.40,-1.40 -5.15,0.85 -10.40,1.60"/>
    </edge>
    <edge id=":J1_5" function="internal">
        <lane id=":J1_5_0" index="0" speed="6.51" length="9.03" shape="-10.40,-4.80 -7.95,-5.15 -6.20,-6.20 -5.15,-7.95 -4.80,-10.40"/>
    </edge>
    <edge id=":J1_6" function="internal">
        <lane id=":J1_6_0" index="0" speed="40.00" length="20.80" shape="-10.40,-4.80 10.40,-4.80"/>
        <lane id=":J1_6_1" index="1" speed="40.00" length="20.80" shape="-10.40,-1.60 10.40,-1.60"/>
    </edge>
    <edge id=":J10_0" function="internal">
        <lane id=":J10_0_0" index="0" speed="6.51" length="9.03" shape="595.20,-389.60 594.85,-392.05 593.80,-393.80 592.05,-394.85 589.60,-395.20"/>
    </edge>
    <edge id=":J10_1" function="internal">
        <lane id=":J10_1_0" index="0" speed="40.00" length="20.80" shape="595.20,-389.60 595.20,-410.40"/>
        <lane id=":J10_1_1" index="1" speed="40.00" length="20.80" shape="598.40,-389.60 598.40,-410.40"/>
    </edge>
    <edge id=":J10_3" function="internal">
        <lane id=":J10_3_0" index="0" speed="9.26" length="19.35" shape="598.40,-389.60 599.15,-394.85 601.40,-398.60 605.15,-400.85 610.40,-401.60"/>
    </edge>
    <edge id=":J10_4" function="internal">
        <lane id=":J10_4_0" index="0" speed="6.51" length="9.03" shape="610.40,-395.20 607.95,-394.85 606.20,-393.80 605.15,-392.05 604.80,-389.60"/>
    </edge>
    <edge id=":J10_5" function="internal">
        <lane id=":J10_5_0" index="0" speed="40.00" length="20.80" shape="610.40,-395.20 589.60,-395.20"/>
        <lane id=":J10_5_1" index="1" speed="40.00" length="20.80" shape="610.40,-398.40 589.60,-398.40"/>
    </edge>
    <edge id=":J10_7" function="internal">
        <lane id=":J10_7_0" index="0" speed="9.26" length="19.35" shape="610.40,-398.40 605.15,-399.15 601.40,-401.40 599.15,-405.15 598.40,-410.40"/>
    </edge>
    <edge id=":J10_8" function="internal">
        <lane id=":J10_8_0" index="0" speed="6.51" length="9.03" shape="604.80,-410.40 605.15,-407.95 606.20,-406.20 607.95,-405.15 610.40,-404.80"/>
    </edge>
    <edge id=":J10_9" function="internal">
        <lane id=":J10_9_0" index="0" speed="40.00" length="20.80" shape="604.80,-410.40 604.80,-389.60"/>
        <lane id=":J10_9_1" index="1" speed="40.00" length="20.80" shape="601.60,-410.40 601.60,-389.60"/>
    </edge>
    <edge id=":J10_11" function="internal">
        <lane id=":J10_11_0" index="0" speed="9.26" length="19.35" shape="601.60,-410.40 600.85,-405.15 598.60,-401.40 594.85,-399.15 589.60,-398.40"/>
    </edge>
    <edge id=":J10_12" function="internal">
        <lane id=":J10_12_0" index="0" speed="6.51" length="9.03" shape="589.60,-404.80 592.05,-405.15 593.80,-406.20 594.85,-407.95 595.20,-410.40"/>
    </edge>
    <edge id=":J10_13" function="internal">
        <lane id=":J10_13_0" index="0" speed="40.00" length="20.80" shape="589.60,-404.80 610.40,-404.80"/>
        <lane id=":J10_13_1" index="1" speed="40.00" length="20.80" shape="589.60,-401.60 610.40,-401.60"/>
    </edge>
    <edge id=":J10_15" function="internal">
        <lane id=":J10_15_0" index="0" speed="9.26" length="19.35" shape="589.60,-401.60 594.85,-400.85 598.60,-398.60 600.85,-394.85 601.60,-389.60"/>
    </edge>
    <edge id=":J11_0" function="internal">
        <lane id=":J11_0_0" index="0" speed="6.51" length="9.03" shape="595.20,-189.60 594.85,-192.05 593.80,-193.80 592.05,-194.85 589.60,-195.20"/>
    </edge>
    <edge id=":J11_1" function="internal">
        <lane id=":J11_1_0" index="0" speed="40.00" length="20.80" shape="595.20,-189.60 595.20,-210.40"/>
        <lane id=":J11_1_1" index="1" speed="40.00" length="20.80" shape="598.40,-189.60 598.40,-210.40"/>
    </edge>
    <edge id=":J11_3" function="internal">
        <lane id=":J11_3_0" index="0" speed="9.26" length="19.35" shape="598.40,-189.60 599.15,-194.85 601.40,-198.60 605.15,-200.85 610.40,-201.60"/>
    </edge>
    <edge id=":J11_4" function="internal">
        <lane id=":J11_4_0" index="0" speed="6.51" length="9.03" shape="610.40,-195.20 607.95,-194.85 606.20,-193.80 605.15,-192.05 604.80,-189.60"/>
    </edge>
    <edge id=":J11_5" function="internal">
        <lane id=":J11_5_0" index="0" speed="40.00" length="20.80" shape="610.40,-195.20 589.60,-195.20"/>
        <lane id=":J11_5_1" index="1" speed="40.00" length="20.80" shape="610.40,-198.40 589.60,-198.40"/>
    </edge>
    <edge id=":J11_7" function="internal">
        <lane id=":J11_7_0" index="0" speed="9.26" length="19.35" shape="610.40,-198.40 605.15,-199.15 601.40,-201.40 599.15,-205.15 598.40,-210.40"/>
    </edge>
    <edge id=":J11_8" function="internal">
        <lane id=":J11_8_0" index="0" speed="6.51" length="9.03" shape="604.80,-210.40 605.15,-207.95 606.20,-206.20 607.95,-205.15 610.40,-204.80"/>
    </edge>
    <edge id=":J11_9" function="internal">
        <lane id=":J11_9_0" index="0" speed="40.00" length="20.80" shape="604.80,-210.40 604.80,-189.60"/>
        <lane id=":J11_9_1" index="1" speed="40.00" length="20.80" shape="601.60,-210.40 601.60,-189.60"/>
    </edge>
    <edge id=":J11_11" function="internal">
        <lane id=":J11_11_0" index="0" speed="9.26" length="19.35" shape="601.60,-210.40 600.85,-205.15 598.60,-201.40 594.85,-199.15 589.60,-198.40"/>
    </edge>
    <edge id=":J11_12" function="internal">
        <lane id=":J11_12_0" index="0" speed="6.51" length="9.03" shape="589.60,-204.80 592.05,-205.15 593.80,-206.20 594.85,-207.95 595.20,-210.40"/>
    </edge>
    <edge id=":J11_13" function="internal">
        <lane id=":J11_13_0" index="0" speed="40.00" length="20.80" shape="589.60,-204.80 610.40,-204.80"/>
        <lane id=":J11_13_1" index="1" speed="40.00" length="20.80" shape="589.60,-201.60 610.40,-201.60"/>
    </edge>
    <edge id=":J11_15" function="internal">
        <lane id=":J11_15_0" index="0" speed="9.26" length="19.35" shape="589.60,-201.60 594.85,-200.85 598.60,-198.60 600.85,-194.85 601.60,-189.60"/>
    </edge>
    <edge id=":J12_0" function="internal">
        <lane id=":J12_0_0" index="0" speed="6.51" length="9.03" shape="395.20,-589.60 394.85,-592.05 393.80,-593.80 392.05,-594.85 389.60,-595.20"/>
    </edge>
    <edge id=":J12_1" function="internal">
        <lane id=":J12_1_0" index="0" speed="9.26" length="19.35" shape="398.40,-589.60 399.15,-594.85 401.40,-598.60 405.15,-600.85 410.40,-601.60"/>
    </edge>
    <edge id=":J12_2" function="internal">
        <lane id=":J12_2_0" index="0" speed="6.51" length="9.03" shape="410.40,-595.20 407.95,-594.85 406.20,-593.80 405.15,-592.05 404.80,-589.60"/>
    </edge>
    <edge id=":J12_3" function="internal">
        <lane id=":J12_3_0" index="0" speed="40.00" length="20.80" shape="410.40,-595.20 389.60,-595.20"/>
        <lane id=":J12_3_1" index="1" speed="40.00" length="20.80" shape="410.40,-598.40 389.60,-598.40"/>
    </edge>
    <edge id=":J12_5" function="internal">
        <lane id=":J12_5_0" index="0" speed="40.00" length="20.80" shape="389.60,-604.80 410.40,-604.80"/>
        <lane id=":J12_5_1" index="1" speed="40.00" length="20.80" shape="389.60,-601.60 410.40,-601.60"/>
    </edge>
    <edge id=":J12_7" function="internal">
        <lane id=":J12_7_0" index="0" speed="9.26" length="5.01" shape="389.60,-601.60 394.56,-600.89"/>
    </edge>
    <edge id=":J12_8" function="internal">
        <lane id=":J12_8_0" index="0" speed="9.26" length="14.34" shape="394.56,-600.89 394.85,-600.85 398.60,-598.60 400.85,-594.85 401.60,-589.60"/>
    </edge>
    <edge id=":J13_0" function="internal">
        <lane id=":J13_0_0" index="0" speed="6.51" length="9.03" shape="395.20,-389.60 394.85,-392.05 393.80,-393.80 392.05,-394.85 389.60,-395.20"/>
    </edge>
    <edge id=":J13_1" function="internal">
        <lane id=":J13_1_0" index="0" speed="40.00" length="20.80" shape="395.20,-389.60 395.20,-410.40"/>
        <lane id=":J13_1_1" index="1" speed="40.00" length="20.80" shape="398.40,-389.60 398.40,-410.40"/>
    </edge>
    <edge id=":J13_3" function="internal">
        <lane id=":J13_3_0" index="0" speed="9.26" length="19.35" shape="398.40,-389.60 399.15,-394.85 401.40,-398.60 405.15,-400.85 410.40,-401.60"/>
    </edge>
    <edge id=":J13_4" function="internal">
        <lane id=":J13_4_0" index="0" speed="6.51" length="9.03" shape="410.40,-395.20 407.95,-394.85 406.20,-393.80 405.15,-392.05 404.80,-389.60"/>
    </edge>
    <edge id=":J13_5" function="internal">
        <lane id=":J13_5_0" index="0" speed="40.00" length="20.80" shape="410.40,-395.20 389.60,-395.20"/>
        <lane id=":J13_5_1" index="1" speed="40.00" length="20.80" shape="410.40,-398.40 389.60,-398.40"/>
    </edge>
    <edge id=":J13_7" function="internal">
        <lane id=":J13_7_0" index="0" speed="9.26" length="19.35" shape="410.40,-398.40 405.15,-399.15 401.40,-401.40 399.15,-405.15 398.40,-410.40"/>
    </edge>
    <edge id=":J13_8" function="internal">
        <lane id=":J13_8_0" index="0" speed="6.51" length="9.03" shape="404.80,-410.40 405.15,-407.95 406.20,-406.20 407.95,-405.15 410.40,-404.80"/>
    </edge>
    <edge id=":J13_9" function="internal">
        <lane id=":J13_9_0" index="0" speed="40.00" length="20.80" shape="404.80,-410.40 404.80,-389.60"/>
        <lane id=":J13_9_1" index="1" speed="40.00" length="20.80" shape="401.60,-410.40 401.60,-389.60"/>
    </edge>
    <edge id=":J13_11" function="internal">
        <lane id=":J13_11_0" index="0" speed="9.26" length="19.35" shape="401.60,-410.40 400.85,-405.15 398.60,-401.40 394.85,-399.15 389.60,-398.40"/>
    </edge>
    <edge id=":J13_12" function="internal">
        <lane id=":J13_12_0" index="0" speed="6.51" length="9.03" shape="389.60,-404.80 392.05,-405.15 393.80,-406.20 394.85,-407.95 395.20,-410.40"/>
    </edge>
    <edge id=":J13_13" function="internal">
        <lane id=":J13_13_0" index="0" speed="40.00" length="20.80" shape="389.60,-404.80 410.40,-404.80"/>
        <lane id=":J13_13_1" index="1" speed="40.00" length="20.80" shape="389.60,-401.60 410.40,-401.60"/>
    </edge>
    <edge id=":J13_15" function="internal">
        <lane id=":J13_15_0" index="0" speed="9.26" length="19.35" shape="389.60,-401.60 394.85,-400.85 398.60,-398.60 400.85,-394.85 401.60,-389.60"/>
    </edge>
    <edge id=":J14_0" function="internal">
        <lane id=":J14_0_0" index="0" speed="6.51" length="9.03" shape="395.20,-189.60 394.85,-192.05 393.80,-193.80 392.05,-194.85 389.60,-195.20"/>
    </edge>
    <edge id=":J14_1" function="internal">
        <lane id=":J14_1_0" index="0" speed="40.00" length="20.80" shape="395.20,-189.60 395.20,-210.40"/>
        <lane id=":J14_1_1" index="1" speed="40.00" length="20.80" shape="398.40,-189.60 398.40,-210.40"/>
    </edge>
    <edge id=":J14_3" function="internal">
        <lane id=":J14_3_0" index="0" speed="9.26" length="19.35" shape="398.40,-189.60 399.15,-194.85 401.40,-198.60 405.15,-200.85 410.40,-201.60"/>
    </edge>
    <edge id=":J14_4" function="internal">
        <lane id=":J14_4_0" index="0" speed="6.51" length="9.03" shape="410.40,-195.20 407.95,-194.85 406.20,-193.80 405.15,-192.05 404.80,-189.60"/>
    </edge>
    <edge id=":J14_5" function="internal">
        <lane id=":J14_5_0" index="0" speed="40.00" length="20.80" shape="410.40,-195.20 389.60,-195.20"/>
        <lane id=":J14_5_1" index="1" speed="40.00" length="20.80" shape="410.40,-198.40 389.60,-198.40"/>
    </edge>
    <edge id=":J14_7" function="internal">
        <lane id=":J14_7_0" index="0" speed="9.26" length="19.35" shape="410.40,-198.40 405.15,-199.15 401.40,-201.40 399.15,-205.15 398.40,-210.40"/>
    </edge>
    <edge id=":J14_8" function="internal">
        <lane id=":J14_8_0" index="0" speed="6.51" length="9.03" shape="404.80,-210.40 405.15,-207.95 406.20,-206.20 407.95,-205.15 410.40,-204.80"/>
    </edge>
    <edge id=":J14_9" function="internal">
        <lane id=":J14_9_0" index="0" speed="40.00" length="20.80" shape="404.80,-210.40 404.80,-189.60"/>
        <lane id=":J14_9_1" index="1" speed="40.00" length="20.80" shape="401.60,-210.40 401.60,-189.60"/>
    </edge>
    <edge id=":J14_11" function="internal">
        <lane id=":J14_11_0" index="0" speed="9.26" length="19.35" shape="401.60,-210.40 400.85,-205.15 398.60,-201.40 394.85,-199.15 389.60,-198.40"/>
    </edge>
    <edge id=":J14_12" function="internal">
        <lane id=":J14_12_0" index="0" speed="6.51" length="9.03" shape="389.60,-204.80 392.05,-205.15 393.80,-206.20 394.85,-207.95 395.20,-210.40"/>
    </edge>
    <edge id=":J14_13" function="internal">
        <lane id=":J14_13_0" index="0" speed="40.00" length="20.80" shape="389.60,-204.80 410.40,-204.80"/>
        <lane id=":J14_13_1" index="1" speed="40.00" length="20.80" shape="389.60,-201.60 410.40,-201.60"/>
    </edge>
    <edge id=":J14_15" function="internal">
        <lane id=":J14_15_0" index="0" speed="9.26" length="19.35" shape="389.60,-201.60 394.85,-200.85 398.60,-198.60 400.85,-194.85 401.60,-189.60"/>
    </edge>
    <edge id=":J15_0" function="internal">
        <lane id=":J15_0_0" index="0" speed="6.51" length="9.03" shape="195.20,-189.60 194.85,-192.05 193.80,-193.80 192.05,-194.85 189.60,-195.20"/>
    </edge>
    <edge id=":J15_1" function="internal">
        <lane id=":J15_1_0" index="0" speed="40.00" length="20.80" shape="195.20,-189.60 195.20,-210.40"/>
        <lane id=":J15_1_1" index="1" speed="40.00" length="20.80" shape="198.40,-189.60 198.40,-210.40"/>
    </edge>
    <edge id=":J15_3" function="internal">
        <lane id=":J15_3_0" index="0" speed="9.26" length="19.35" shape="198.40,-189.60 199.15,-194.85 201.40,-198.60 205.15,-200.85 210.40,-201.60"/>
    </edge>
    <edge id=":J15_4" function="internal">
        <lane id=":J15_4_0" index="0" speed="6.51" length="9.03" shape="210.40,-195.20 207.95,-194.85 206.20,-193.80 205.15,-192.05 204.80,-189.60"/>
    </edge>
    <edge id=":J15_5" function="internal">
        <lane id=":J15_5_0" index="0" speed="40.00" length="20.80" shape="210.40,-195.20 189.60,-195.20"/>
        <lane id=":J15_5_1" index="1" speed="40.00" length="20.80" shape="210.40,-198.40 189.60,-198.40"/>
    </edge>
    <edge id=":J15_7" function="internal">
        <lane id=":J15_7_0" index="0" speed="9.26" length="19.35" shape="210.40,-198.40 205.15,-199.15 201.40,-201.40 199.15,-205.15 198.40,-210.40"/>
    </edge>
    <edge id=":J15_8" function="internal">
        <lane id=":J15_8_0" index="0" speed="6.51" length="9.03" shape="204.80,-210.40 205.15,-207.95 206.20,-206.20 207.95,-205.15 210.40,-204.80"/>
    </edge>
    <edge id=":J15_9" function="internal">
        <lane id=":J15_9_0" index="0" speed="40.00" length="20.80" shape="204.80,-210.40 204.80,-189.60"/>
        <lane id=":J15_9_1" index="1" speed="40.00" length="20.80" shape="201.60,-210.40 201.60,-189.60"/>
    </edge>
    <edge id=":J15_11" function="internal">
        <lane id=":J15_11_0" index="0" speed="9.26" length="19.35" shape="201.60,-210.40 200.85,-205.15 198.60,-201.40 194.85,-199.15 189.60,-198.40"/>
    </edge>
    <edge id=":J15_12" function="internal">
        <lane id=":J15_12_0" index="0" speed="6.51" length="9.03" shape="189.60,-204.80 192.05,-205.15 193.80,-206.20 194.85,-207.95 195.20,-210.40"/>
    </edge>
    <edge id=":J15_13" function="internal">
        <lane id=":J15_13_0" index="0" speed="40.00" length="20.80" shape="189.60,-204.80 210.40,-204.80"/>
        <lane id=":J15_13_1" index="1" speed="40.00" length="20.80" shape="189.60,-201.60 210.40,-201.60"/>
    </edge>
    <edge id=":J15_15" function="internal">
        <lane id=":J15_15_0" index="0" speed="9.26" length="19.35" shape="189.60,-201.60 194.85,-200.85 198.60,-198.60 200.85,-194.85 201.60,-189.60"/>
    </edge>
    <edge id=":J16_0" function="internal">
        <lane id=":J16_0_0" index="0" speed="6.51" length="9.03" shape="195.20,-389.60 194.85,-392.05 193.80,-393.80 192.05,-394.85 189.60,-395.20"/>
    </edge>
    <edge id=":J16_1" function="internal">
        <lane id=":J16_1_0" index="0" speed="40.00" length="20.80" shape="195.20,-389.60 195.20,-410.40"/>
        <lane id=":J16_1_1" index="1" speed="40.00" length="20.80" shape="198.40,-389.60 198.40,-410.40"/>
    </edge>
    <edge id=":J16_3" function="internal">
        <lane id=":J16_3_0" index="0" speed="9.26" length="19.35" shape="198.40,-389.60 199.15,-394.85 201.40,-398.60 205.15,-400.85 210.40,-401.60"/>
    </edge>
    <edge id=":J16_4" function="internal">
        <lane id=":J16_4_0" index="0" speed="6.51" length="9.03" shape="210.40,-395.20 207.95,-394.85 206.20,-393.80 205.15,-392.05 204.80,-389.60"/>
    </edge>
    <edge id=":J16_5" function="internal">
        <lane id=":J16_5_0" index="0" speed="40.00" length="20.80" shape="210.40,-395.20 189.60,-395.20"/>
        <lane id=":J16_5_1" index="1" speed="40.00" length="20.80" shape="210.40,-398.40 189.60,-398.40"/>
    </edge>
    <edge id=":J16_7" function="internal">
        <lane id=":J16_7_0" index="0" speed="9.26" length="19.35" shape="210.40,-398.40 205.15,-399.15 201.40,-401.40 199.15,-405.15 198.40,-410.40"/>
    </edge>
    <edge id=":J16_8" function="internal">
        <lane id=":J16_8_0" index="0" speed="6.51" length="9.03" shape="204.80,-410.40 205.15,-407.95 206.20,-406.20 207.95,-405.15 210.40,-404.80"/>
    </edge>
    <edge id=":J16_9" function="internal">
        <lane id=":J16_9_0" index="0" speed="40.00" length="20.80" shape="204.80,-410.40 204.80,-389.60"/>
        <lane id=":J16_9_1" index="1" speed="40.00" length="20.80" shape="201.60,-410.40 201.60,-389.60"/>
    </edge>
    <edge id=":J16_11" function="internal">
        <lane id=":J16_11_0" index="0" speed="9.26" length="19.35" shape="201.60,-410.40 200.85,-405.15 198.60,-401.40 194.85,-399.15 189.60,-398.40"/>
    </edge>
    <edge id=":J16_12" function="internal">
        <lane id=":J16_12_0" index="0" speed="6.51" length="9.03" shape="189.60,-404.80 192.05,-405.15 193.80,-406.20 194.85,-407.95 195.20,-410.40"/>
    </edge>
    <edge id=":J16_13" function="internal">
        <lane id=":J16_13_0" index="0" speed="40.00" length="20.80" shape="189.60,-404.80 210.40,-404.80"/>
        <lane id=":J16_13_1" index="1" speed="40.00" length="20.80" shape="189.60,-401.60 210.40,-401.60"/>
    </edge>
    <edge id=":J16_15" function="internal">
        <lane id=":J16_15_0" index="0" speed="9.26" length="19.35" shape="189.60,-401.60 194.85,-400.85 198.60,-398.60 200.85,-394.85 201.60,-389.60"/>
    </edge>
    <edge id=":J17_0" function="internal">
        <lane id=":J17_0_0" index="0" speed="6.51" length="9.03" shape="195.20,-589.60 194.85,-592.05 193.80,-593.80 192.05,-594.85 189.60,-595.20"/>
    </edge>
    <edge id=":J17_1" function="internal">
        <lane id=":J17_1_0" index="0" speed="9.26" length="19.35" shape="198.40,-589.60 199.15,-594.85 201.40,-598.60 205.15,-600.85 210.40,-601.60"/>
    </edge>
    <edge id=":J17_2" function="internal">
        <lane id=":J17_2_0" index="0" speed="6.51" length="9.03" shape="210.40,-595.20 207.95,-594.85 206.20,-593.80 205.15,-592.05 204.80,-589.60"/>
    </edge>
    <edge id=":J17_3" function="internal">
        <lane id=":J17_3_0" index="0" speed="40.00" length="20.80" shape="210.40,-595.20 189.60,-595.20"/>
        <lane id=":J17_3_1" index="1" speed="40.00" length="20.80" shape="210.40,-598.40 189.60,-598.40"/>
    </edge>
    <edge id=":J17_5" function="internal">
        <lane id=":J17_5_0" index="0" speed="40.00" length="20.80" shape="189.60,-604.80 210.40,-604.80"/>
        <lane id=":J17_5_1" index="1" speed="40.00" length="20.80" shape="189.60,-601.60 210.40,-601.60"/>
    </edge>
    <edge id=":J17_7" function="internal">
        <lane id=":J17_7_0" index="0" speed="9.26" length="5.01" shape="189.60,-601.60 194.56,-600.89"/>
    </edge>
    <edge id=":J17_8" function="internal">
        <lane id=":J17_8_0" index="0" speed="9.26" length="14.34" shape="194.56,-600.89 194.85,-600.85 198.60,-598.60 200.85,-594.85 201.60,-589.60"/>
    </edge>
    <edge id=":J18_0" function="internal">
        <lane id=":J18_0_0" index="0" speed="6.51" length="9.03" shape="-4.80,-389.60 -5.15,-392.05 -6.20,-393.80 -7.95,-394.85 -10.40,-395.20"/>
    </edge>
    <edge id=":J18_1" function="internal">
        <lane id=":J18_1_0" index="0" speed="40.00" length="20.80" shape="-4.80,-389.60 -4.80,-410.40"/>
        <lane id=":J18_1_1" index="1" speed="40.00" length="20.80" shape="-1.60,-389.60 -1.60,-410.40"/>
    </edge>
    <edge id=":J18_3" function="internal">
        <lane id=":J18_3_0" index="0" speed="9.26" length="19.35" shape="-1.60,-389.60 -0.85,-394.85 1.40,-398.60 5.15,-400.85 10.40,-401.60"/>
    </edge>
    <edge id=":J18_4" function="internal">
        <lane id=":J18_4_0" index="0" speed="6.51" length="9.03" shape="10.40,-395.20 7.95,-394.85 6.20,-393.80 5.15,-392.05 4.80,-389.60"/>
    </edge>
    <edge id=":J18_5" function="internal">
        <lane id=":J18_5_0" index="0" speed="40.00" length="20.80" shape="10.40,-395.20 -10.40,-395.20"/>
        <lane id=":J18_5_1" index="1" speed="40.00" length="20.80" shape="10.40,-398.40 -10.40,-398.40"/>
    </edge>
    <edge id=":J18_7" function="internal">
        <lane id=":J18_7_0" index="0" speed="9.26" length="19.35" shape="10.40,-398.40 5.15,-399.15 1.40,-401.40 -0.85,-405.15 -1.60,-410.40"/>
    </edge>
    <edge id=":J18_8" function="internal">
        <lane id=":J18_8_0" index="0" speed="6.51" length="9.03" shape="4.80,-410.40 5.15,-407.95 6.20,-406.20 7.95,-405.15 10.40,-404.80"/>
    </edge>
    <edge id=":J18_9" function="internal">
        <lane id=":J18_9_0" index="0" speed="40.00" length="20.80" shape="4.80,-410.40 4.80,-389.60"/>
        <lane id=":J18_9_1" index="1" speed="40.00" length="20.80" shape="1.60,-410.40 1.60,-389.60"/>
    </edge>
    <edge id=":J18_11" function="internal">
        <lane id=":J18_11_0" index="0" speed="9.26" length="19.35" shape="1.60,-410.40 0.85,-405.15 -1.40,-401.40 -5.15,-399.15 -10.40,-398.40"/>
    </edge>
    <edge id=":J18_12" function="internal">
        <lane id=":J18_12_0" index="0" speed="6.51" length="9.03" shape="-10.40,-404.80 -7.95,-405.15 -6.20,-406.20 -5.15,-407.95 -4.80,-410.40"/>
    </edge>
    <edge id=":J18_13" function="internal">
        <lane id=":J18_13_0" index="0" speed="40.00" length="20.80" shape="-10.40,-404.80 10.40,-404.80"/>
        <lane id=":J18_13_1" index="1" speed="40.00" length="20.80" shape="-10.40,-401.60 10.40,-401.60"/>
    </edge>
    <edge id=":J18_15" function="internal">
        <lane id=":J18_15_0" index="0" speed="9.26" length="19.35" shape="-10.40,-401.60 -5.15,-400.85 -1.40,-398.60 0.85,-394.85 1.60,-389.60"/>
    </edge>
    <edge id=":J19_0" function="internal">
        <lane id=":J19_0_0" index="0" speed="40.00" length="20.80" shape="-204.80,-389.60 -204.80,-410.40"/>
        <lane id=":J19_0_1" index="1" speed="40.00" length="20.80" shape="-201.60,-389.60 -201.60,-410.40"/>
    </edge>
    <edge id=":J19_2" function="internal">
        <lane id=":J19_2_0" index="0" speed="9.26" length="5.01" shape="-201.60,-389.60 -200.89,-394.56"/>
    </edge>
    <edge id=":J19_8" function="internal">
        <lane id=":J19_8_0" index="0" speed="9.26" length="14.34" shape="-200.89,-394.56 -200.85,-394.85 -198.60,-398.60 -194.85,-400.85 -189.60,-401.60"/>
    </edge>
    <edge id=":J19_3" function="internal">
        <lane id=":J19_3_0" index="0" speed="6.51" length="9.03" shape="-189.60,-395.20 -192.05,-394.85 -193.80,-393.80 -194.85,-392.05 -195.20,-389.60"/>
    </edge>
    <edge id=":J19_4" function="internal">
        <lane id=":J19_4_0" index="0" speed="9.26" length="19.35" shape="-189.60,-398.40 -194.85,-399.15 -198.60,-401.40 -200.85,-405.15 -201.60,-410.40"/>
    </edge>
    <edge id=":J19_5" function="internal">
        <lane id=":J19_5_0" index="0" speed="6.51" length="9.03" shape="-195.20,-410.40 -194.85,-407.95 -193.80,-406.20 -192.05,-405.15 -189.60,-404.80"/>
    </edge>
    <edge id=":J19_6" function="internal">
        <lane id=":J19_6_0" index="0" speed="40.00" length="20.80" shape="-195.20,-410.40 -195.20,-389.60"/>
        <lane id=":J19_6_1" index="1" speed="40.00" length="20.80" shape="-198.40,-410.40 -198.40,-389.60"/>
    </edge>
    <edge id=":J2_0" function="internal">
        <lane id=":J2_0_0" index="0" speed="40.00" length="20.80" shape="210.40,4.80 189.60,4.80"/>
        <lane id=":J2_0_1" index="1" speed="40.00" length="20.80" shape="210.40,1.60 189.60,1.60"/>
    </edge>
    <edge id=":J2_2" function="internal">
        <lane id=":J2_2_0" index="0" speed="9.26" length="5.01" shape="210.40,1.60 205.44,0.89"/>
    </edge>
    <edge id=":J2_8" function="internal">
        <lane id=":J2_8_0" index="0" speed="9.26" length="14.34" shape="205.44,0.89 205.15,0.85 201.40,-1.40 199.15,-5.15 198.40,-10.40"/>
    </edge>
    <edge id=":J2_3" function="internal">
        <lane id=":J2_3_0" index="0" speed="6.51" length="9.03" shape="204.80,-10.40 205.15,-7.95 206.20,-6.20 207.95,-5.15 210.40,-4.80"/>
    </edge>
    <edge id=":J2_4" function="internal">
        <lane id=":J2_4_0" index="0" speed="9.26" length="19.35" shape="201.60,-10.40 200.85,-5.15 198.60,-1.40 194.85,0.85 189.60,1.60"/>
    </edge>
    <edge id=":J2_5" function="internal">
        <lane id=":J2_5_0" index="0" speed="6.51" length="9.03" shape="189.60,-4.80 192.05,-5.15 193.80,-6.20 194.85,-7.95 195.20,-10.40"/>
    </edge>
    <edge id=":J2_6" function="internal">
        <lane id=":J2_6_0" index="0" speed="40.00" length="20.80" shape="189.60,-4.80 210.40,-4.80"/>
        <lane id=":J2_6_1" index="1" speed="40.00" length="20.80" shape="189.60,-1.60 210.40,-1.60"/>
    </edge>
    <edge id=":J20_0" function="internal">
        <lane id=":J20_0_0" index="0" speed="40.00" length="20.80" shape="-204.80,-189.60 -204.80,-210.40"/>
        <lane id=":J20_0_1" index="1" speed="40.00" length="20.80" shape="-201.60,-189.60 -201.60,-210.40"/>
    </edge>
    <edge id=":J20_2" function="internal">
        <lane id=":J20_2_0" index="0" speed="9.26" length="5.01" shape="-201.60,-189.60 -200.89,-194.56"/>
    </edge>
    <edge id=":J20_8" function="internal">
        <lane id=":J20_8_0" index="0" speed="9.26" length="14.34" shape="-200.89,-194.56 -200.85,-194.85 -198.60,-198.60 -194.85,-200.85 -189.60,-201.60"/>
    </edge>
    <edge id=":J20_3" function="internal">
        <lane id=":J20_3_0" index="0" speed="6.51" length="9.03" shape="-189.60,-195.20 -192.05,-194.85 -193.80,-193.80 -194.85,-192.05 -195.20,-189.60"/>
    </edge>
    <edge id=":J20_4" function="internal">
        <lane id=":J20_4_0" index="0" speed="9.26" length="19.35" shape="-189.60,-198.40 -194.85,-199.15 -198.60,-201.40 -200.85,-205.15 -201.60,-210.40"/>
    </edge>
    <edge id=":J20_5" function="internal">
        <lane id=":J20_5_0" index="0" speed="6.51" length="9.03" shape="-195.20,-210.40 -194.85,-207.95 -193.80,-206.20 -192.05,-205.15 -189.60,-204.80"/>
    </edge>
    <edge id=":J20_6" function="internal">