<?xml version="1.0" encoding="UTF-8"?>

<!-- generated on 2025-09-07 21:42:14 by Eclipse SUMO netedit Version 1.24.0
<neteditConfiguration xmlns:xsi="http://www.w3.org/2001/XMLSchema-instance" xsi:noNamespaceSchemaLocation="http://sumo.dlr.de/xsd/neteditConfiguration.xsd">

    <input>
        <sumocfg-file value="D:\main project\final\map2\RL.sumocfg"/>
        <additional-files value="D:\main project\final\map2\RL.add.xml"/>
        <route-files value="D:\main project\final\map2\RL.rou.xml"/>
        <sumo-net-file value="D:\main project\final\map2\RL.net.xml"/>
    </input>

    <output>
        <output-file value="D:\main project\final\map2\RL.net.xml"/>
    </output>

    <processing>
        <geometry.min-radius.fix.railways value="false"/>
        <geometry.avoid-overlap value="false"/>
        <geometry.max-grade.fix value="false"/>
        <offset.disable-normalization value="true"/>
        <lefthand value="0"/>
    </processing>

    <junctions>
        <no-turnarounds value="true"/>
        <junctions.corner-detail value="5"/>
        <junctions.limit-turn-speed value="5.50"/>
        <rectangular-lane-cut value="0"/>
    </junctions>

    <pedestrian>
        <walkingareas value="0"/>
    </pedestrian>

</neteditConfiguration>
-->

<net version="1.20" junctionCornerDetail="5" limitTurnSpeed="5.50" avoidOverlap="0" xmlns:xsi="http://www.w3.org/2001/XMLSchema-instance" xsi:noNamespaceSchemaLocation="http://sumo.dlr.de/xsd/net_file.xsd">

    <location netOffset="0.00,0.00" convBoundary="100.00,-200.00,500.00,200.00" origBoundary="-10000000000.00,-10000000000.00,10000000000.00,10000000000.00" projParameter="!"/>

    <edge id=":J13_0" function="internal">
        <lane id=":J13_0_0" index="0" speed="3.90" length="2.58" shape="495.20,-193.60 495.10,-194.30 494.80,-194.80 494.30,-195.10 493.60,-195.20"/>
        <lane id=":J13_0_1" index="1" speed="6.08" length="7.74" shape="498.40,-193.60 498.10,-195.70 497.20,-197.20 495.70,-198.10 493.60,-198.40"/>
    </edge>
    <edge id=":J13_2" function="internal">
        <lane id=":J13_2_0" index="0" speed="8.96" length="18.06" shape="493.60,-204.80 498.50,-204.10 502.00,-202.00 504.10,-198.50 504.80,-193.60"/>
        <lane id=":J13_2_1" index="1" speed="7.66" length="12.90" shape="493.60,-201.60 497.10,-201.10 499.60,-199.60 501.10,-197.10 501.60,-193.60"/>
    </edge>
    <edge id=":J15_0" function="internal">
        <lane id=":J15_0_0" index="0" speed="8.96" length="18.06" shape="95.20,-193.60 95.90,-198.50 98.00,-202.00 101.50,-204.10 106.40,-204.80"/>
        <lane id=":J15_0_1" index="1" speed="7.66" length="12.90" shape="98.40,-193.60 98.90,-197.10 100.40,-199.60 102.90,-201.10 106.40,-201.60"/>
    </edge>
    <edge id=":J15_2" function="internal">
        <lane id=":J15_2_0" index="0" speed="3.90" length="2.58" shape="106.40,-195.20 105.70,-195.10 105.20,-194.80 104.90,-194.30 104.80,-193.60"/>
        <lane id=":J15_2_1" index="1" speed="6.08" length="7.74" shape="106.40,-198.40 104.30,-198.10 102.80,-197.20 101.90,-195.70 101.60,-193.60"/>
    </edge>
    <edge id=":east_0" function="internal">
        <lane id=":east_0_0" index="0" speed="8.96" length="18.06" shape="504.80,-6.40 504.10,-1.50 502.00,2.00 498.50,4.10 493.60,4.80"/>
        <lane id=":east_0_1" index="1" speed="7.66" length="12.90" shape="501.60,-6.40 501.10,-2.90 499.60,-0.40 497.10,1.10 493.60,1.60"/>
    </edge>
    <edge id=":east_2" function="internal">
        <lane id=":east_2_0" index="0" speed="3.90" length="2.58" shape="493.60,-4.80 494.30,-4.90 494.80,-5.20 495.10,-5.70 495.20,-6.40"/>
        <lane id=":east_2_1" index="1" speed="6.08" length="7.74" shape="493.60,-1.60 495.70,-1.90 497.20,-2.80 498.10,-4.30 498.40,-6.40"/>
    </edge>
    <edge id=":mid_0" function="internal">
        <lane id=":mid_0_0" index="0" speed="6.51" length="9.03" shape="295.20,10.40 294.85,7.95 293.80,6.20 292.05,5.15 289.60,4.80"/>
    </edge>
    <edge id=":mid_1" function="internal">
        <lane id=":mid_1_0" index="0" speed="13.89" length="20.80" shape="295.20,10.40 295.20,-10.40"/>
        <lane id=":mid_1_1" index="1" speed="13.89" length="20.80" shape="298.40,10.40 298.40,-10.40"/>
    </edge>
    <edge id=":mid_3" function="internal">
        <lane id=":mid_3_0" index="0" speed="9.26" length="19.35" shape="298.40,10.40 299.15,5.15 301.40,1.40 305.15,-0.85 310.40,-1.60"/>
    </edge>
    <edge id=":mid_4" function="internal">
        <lane id=":mid_4_0" index="0" speed="6.51" length="9.03" shape="310.40,4.80 307.95,5.15 306.20,6.20 305.15,7.95 304.80,10.40"/>
    </edge>
    <edge id=":mid_5" function="internal">
        <lane id=":mid_5_0" index="0" speed="13.89" length="20.80" shape="310.40,4.80 289.60,4.80"/>
        <lane id=":mid_5_1" index="1" speed="13.89" length="20.80" shape="310.40,1.60 289.60,1.60"/>
    </edge>
    <edge id=":mid_7" function="internal">
        <lane id=":mid_7_0" index="0" speed="9.26" length="19.35" shape="310.40,1.60 305.15,0.85 301.40,-1.40 299.15,-5.15 298.40,-10.40"/>
    </edge>
    <edge id=":mid_8" function="internal">
        <lane id=":mid_8_0" index="0" speed="6.51" length="9.03" shape="304.80,-10.40 305.15,-7.95 306.20,-6.20 307.95,-5.15 310.40,-4.80"/>
    </edge>
    <edge id=":mid_9" function="internal">
        <lane id=":mid_9_0" index="0" speed="13.89" length="20.80" shape="304.80,-10.40 304.80,10.40"/>
        <lane id=":mid_9_1" index="1" speed="13.89" length="20.80" shape="301.60,-10.40 301.60,10.40"/>
    </edge>
    <edge id=":mid_11" function="internal">
        <lane id=":mid_11_0" index="0" speed="9.26" length="19.35" shape="301.60,-10.40 300.85,-5.15 298.60,-1.40 294.85,0.85 289.60,1.60"/>
    </edge>
    <edge id=":mid_12" function="internal">
        <lane id=":mid_12_0" index="0" speed="6.51" length="9.03" shape="289.60,-4.80 292.05,-5.15 293.80,-6.20 294.85,-7.95 295.20,-10.40"/>
    </edge>
    <edge id=":mid_13" function="internal">
        <lane id=":mid_13_0" index="0" speed="13.89" length="20.80" shape="289.60,-4.80 310.40,-4.80"/>
        <lane id=":mid_13_1" index="1" speed="13.89" length="20.80" shape="289.60,-1.60 310.40,-1.60"/>
    </edge>
    <edge id=":mid_15" function="internal">
        <lane id=":mid_15_0" index="0" speed="9.26" length="19.35" shape="289.60,-1.60 294.85,-0.85 298.60,1.40 300.85,5.15 301.60,10.40"/>
    </edge>
    <edge id=":south_0" function="internal">
        <lane id=":south_0_0" index="0" speed="6.51" length="9.03" shape="295.20,-189.60 294.85,-192.05 293.80,-193.80 292.05,-194.85 289.60,-195.20"/>
    </edge>
    <edge id=":south_1" function="internal">
        <lane id=":south_1_0" index="0" speed="9.26" length="19.35" shape="298.40,-189.60 299.15,-194.85 301.40,-198.60 305.15,-200.85 310.40,-201.60"/>
    </edge>
    <edge id=":south_2" function="internal">
        <lane id=":south_2_0" index="0" speed="6.51" length="9.03" shape="310.40,-195.20 307.95,-194.85 306.20,-193.80 305.15,-192.05 304.80,-189.60"/>
    </edge>
    <edge id=":south_3" function="internal">
        <lane id=":south_3_0" index="0" speed="13.89" length="20.80" shape="310.40,-195.20 289.60,-195.20"/>
        <lane id=":south_3_1" index="1" speed="13.89" length="20.80" shape="310.40,-198.40 289.60,-198.40"/>
    </edge>
    <edge id=":south_5" function="internal">
        <lane id=":south_5_0" index="0" speed="13.89" length="20.80" shape="289.60,-204.80 310.40,-204.80"/>
        <lane id=":south_5_1" index="1" speed="13.89" length="20.80" shape="289.60,-201.60 310.40,-201.60"/>
    </edge>
    <edge id=":south_7" function="internal">
        <lane id=":south_7_0" index="0" speed="9.26" length="5.01" shape="289.60,-201.60 294.56,-200.89"/>
    </edge>
    <edge id=":south_8" function="internal">
        <lane id=":south_8_0" index="0" speed="9.26" length="14.34" shape="294.56,-200.89 294.85,-200.85 298.60,-198.60 300.85,-194.85 301.60,-189.60"/>
    </edge>
    <edge id=":west_0" function="internal">
        <lane id=":west_0_0" index="0" speed="8.96" length="18.06" shape="106.40,4.80 101.50,4.10 98.00,2.00 95.90,-1.50 95.20,-6.40"/>
        <lane id=":west_0_1" index="1" speed="7.66" length="12.90" shape="106.40,1.60 102.90,1.10 100.40,-0.40 98.90,-2.90 98.40,-6.40"/>
    </edge>
    <edge id=":west_2" function="internal">
        <lane id=":west_2_0" index="0" speed="3.90" length="2.58" shape="104.80,-6.40 104.90,-5.70 105.20,-5.20 105.70,-4.90 106.40,-4.80"/>
        <lane id=":west_2_1" index="1" speed="6.08" length="7.74" shape="101.60,-6.40 101.90,-4.30 102.80,-2.80 104.30,-1.90 106.40,-1.60"/>
    </edge>

    <edge id="-E11" from="J13" to="east" priority="-1">
        <lane id="-E11_0" index="0" speed="13.89" length="187.20" shape="504.80,-193.60 504.80,-6.40"/>
        <lane id="-E11_1" index="1" speed="13.89" length="187.20" shape="501.60,-193.60 501.60,-6.40"/>
    </edge>
    <edge id="-E12" from="south" to="J13" priority="-1">
        <lane id="-E12_0" index="0" speed="13.89" length="183.20" shape="310.40,-204.80 493.60,-204.80"/>
        <lane id="-E12_1" index="1" speed="13.89" length="183.20" shape="310.40,-201.60 493.60,-201.60"/>
    </edge>
    <edge id="-E13" from="J15" to="south" priority="-1">
        <lane id="-E13_0" index="0" speed="13.89" length="183.20" shape="106.40,-204.80 289.60,-204.80"/>
        <lane id="-E13_1" index="1" speed="13.89" length="183.20" shape="106.40,-201.60 289.60,-201.60"/>
    </edge>
    <edge id="-E14" from="west" to="J15" priority="-1">
        <lane id="-E14_0" index="0" speed="13.89" length="187.20" shape="95.20,-6.40 95.20,-193.60"/>
        <lane id="-E14_1" index="1" speed="13.89" length="187.20" shape="98.40,-6.40 98.40,-193.60"/>
    </edge>
    <edge id="E11" from="east" to="J13" priority="-1">
        <lane id="E11_0" index="0" speed="13.89" length="187.20" shape="495.20,-6.40 495.20,-193.60"/>
        <lane id="E11_1" index="1" speed="13.89" length="187.20" shape="498.40,-6.40 498.40,-193.60"/>
    </edge>
    <edge id="E12" from="J13" to="south" priority="-1">
        <lane id="E12_0" index="0" speed="13.89" length="183.20" shape="493.60,-195.20 310.40,-195.20"/>
        <lane id="E12_1" index="1" speed="13.89" length="183.20" shape="493.60,-198.40 310.40,-198.40"/>
    </edge>
    <edge id="E13" from="south" to="J15" priority="-1">
        <lane id="E13_0" index="0" speed="13.89" length="183.20" shape="289.60,-195.20 106.40,-195.20"/>
        <lane id="E13_1" index="1" speed="13.89" length="183.20" shape="289.60,-198.40 106.40,-198.40"/>
    </edge>
    <edge id="E14" from="J15" to="west" priority="-1">
        <lane id="E14_0" index="0" speed="13.89" length="187.20" shape="104.80,-193.60 104.80,-6.40"/>
        <lane id="E14_1" index="1" speed="13.89" length="187.20" shape="101.60,-193.60 101.60,-6.40"/>
    </edge>
    <edge id="east_mid" from="east" to="mid" priority="-1">
        <lane id="east_mid_0" index="0" speed="13.89" length="183.20" shape="493.60,4.80 310.40,4.80"/>
        <lane id="east_mid_1" index="1" speed="13.89" length="183.20" shape="493.60,1.60 310.40,1.60"/>
    </edge>
    <edge id="mid_east" from="mid" to="east" priority="-1">
        <lane id="mid_east_0" index="0" speed="13.89" length="183.20" shape="310.40,-4.80 493.60,-4.80"/>
        <lane id="mid_east_1" index="1" speed="13.89" length="183.20" shape="310.40,-1.60 493.60,-1.60"/>
    </edge>
    <edge id="mid_north" from="mid" to="north" priority="-1">
        <lane id="mid_north_0" index="0" speed="13.89" length="189.60" shape="304.80,10.40 304.80,200.00"/>
        <lane id="mid_north_1" index="1" speed="13.89" length="189.60" shape="301.60,10.40 301.60,200.00"/>
    </edge>
    <edge id="mid_south" from="mid" to="south" priority="-1">
        <lane id="mid_south_0" index="0" speed="13.89" length="179.20" shape="295.20,-10.40 295.20,-189.60"/>
        <lane id="mid_south_1" index="1" speed="13.89" length="179.20" shape="298.40,-10.40 298.40,-189.60"/>
    </edge>
    <edge id="mid_west" from="mid" to="west" priority="-1">
        <lane id="mid_west_0" index="0" speed="13.89" length="183.20" shape="289.60,4.80 106.40,4.80"/>
        <lane id="mid_west_1" index="1" speed="13.89" length="183.20" shape="289.60,1.60 106.40,1.60"/>
    </edge>
    <edge id="north_mid" from="north" to="mid" priority="-1">
        <lane id="north_mid_0" index="0" speed="13.89" length="189.60" shape="295.20,200.00 295.20,10.40"/>
        <lane id="north_mid_1" index="1" speed="13.89" length="189.60" shape="298.40,200.00 298.40,10.40"/>
    </edge>
    <edge id="south_mid" from="south" to="mid" priority="-1">
        <lane id="south_mid_0" index="0" speed="13.89" length="179.20" shape="304.80,-189.60 304.80,-10.40"/>
        <lane id="south_mid_1" index="1" speed="13.89" length="179.20" shape="301.60,-189.60 301.60,-10.40"/>
    </edge>
    <edge id="west_mid" from="west" to="mid" priority="-1">
        <lane id="west_mid_0" index="0" speed="13.89" length="183.20" shape="106.40,-4.80 289.60,-4.80"/>
        <lane id="west_mid_1" index="1" speed="13.89" length="183.20" shape="106.40,-1.60 289.60,-1.60"/>
    </edge>

    <tlLogic id="J11" type="static" programID="0" offset="0">
        <phase duration="42" state="GGGgrrrrrrrrrrrr"/>
        <phase duration="3"  state="yyyyrrrrrrrrrrrr"/>
        <phase duration="42" state="rrrrGGGgrrrrrrrr"/>
        <phase duration="3"  state="rrrryyyyrrrrrrrr"/>
        <phase duration="42" state="rrrrrrrrGGGgrrrr"/>
        <phase duration="3"  state="rrrrrrrryyyyrrrr"/>
        <phase duration="42" state="rrrrrrrrrrrrGGGg"/>
        <phase duration="3"  state="rrrrrrrrrrrryyyy"/>
    </tlLogic>

    <junction id="J13" type="priority" x="500.00" y="-200.00" incLanes="E11_0 E11_1 -E12_0 -E12_1" intLanes=":J13_0_0 :J13_0_1 :J13_2_0 :J13_2_1" shape="493.60,-193.60 506.40,-193.60 506.04,-197.51 504.98,-200.71 503.20,-203.20 500.71,-204.98 497.51,-206.04 493.60,-206.40">
        <request index="0" response="0000" foes="0000" cont="0"/>
        <request index="1" response="0000" foes="0000" cont="0"/>
        <request index="2" response="0000" foes="0000" cont="0"/>
        <request index="3" response="0000" foes="0000" cont="0"/>
    </junction>
    <junction id="J15" type="priority" x="100.00" y="-200.00" incLanes="-E14_0 -E14_1 E13_0 E13_1" intLanes=":J15_0_0 :J15_0_1 :J15_2_0 :J15_2_1" shape="93.60,-193.60 106.40,-193.60 106.40,-206.40 102.49,-206.04 99.29,-204.98 96.80,-203.20 95.02,-200.71 93.96,-197.51">
        <request index="0" response="0000" foes="0000" cont="0"/>
        <request index="1" response="0000" foes="0000" cont="0"/>
        <request index="2" response="0000" foes="0000" cont="0"/>
        <request index="3" response="0000" foes="0000" cont="0"/>
    </junction>
    <junction id="east" type="priority" x="500.00" y="0.00" incLanes="-E11_0 -E11_1 mid_east_0 mid_east_1" intLanes=":east_0_0 :east_0_1 :east_2_0 :east_2_1" shape="506.40,-6.40 493.60,-6.40 493.60,6.40 497.51,6.04 500.71,4.98 503.20,3.20 504.98,0.71 506.04,-2.49">
        <request index="0" response="0000" foes="0000" cont="0"/>
        <request index="1" response="0000" foes="0000" cont="0"/>
        <request index="2" response="0000" foes="0000" cont="0"/>
        <request index="3" response="0000" foes="0000" cont="0"/>
    </junction>
    <junction id="mid" type="traffic_light" x="300.00" y="0.00" incLanes="north_mid_0 north_mid_1 east_mid_0 east_mid_1 south_mid_0 south_mid_1 west_mid_0 west_mid_1" intLanes=":mid_0_0 :mid_1_0 :mid_1_1 :mid_3_0 :mid_4_0 :mid_5_0 :mid_5_1 :mid_7_0 :mid_8_0 :mid_9_0 :mid_9_1 :mid_11_0 :mid_12_0 :mid_13_0 :mid_13_1 :mid_15_0" shape="293.60,10.40 306.40,10.40 306.84,8.18 307.40,7.40 308.18,6.84 309.18,6.51 310.40,6.40 310.40,-6.40 308.18,-6.84 307.40,-7.40 306.84,-8.18 306.51,-9.18 306.40,-10.40 293.60,-10.40 293.16,-8.18 292.60,-7.40 291.82,-6.84 290.82,-6.51 289.60,-6.40 289.60,6.40 291.82,6.84 292.60,7.40 293.16,8.18 293.49,9.18">
        <request index="0"  response="0000000000000000" foes="0000000001100000" cont="0"/>
        <request index="1"  response="0000000000000000" foes="1111100011100000" cont="0"/>
        <request index="2"  response="0000000000000000" foes="1111100011100000" cont="0"/>
        <request index="3"  response="0000011000000000" foes="1110011011100000" cont="0"/>
        <request index="4"  response="0000011000000000" foes="0000011000000000" cont="0"/>
        <request index="5"  response="0000111000001111" foes="1000111000001111" cont="0"/>
        <request index="6"  response="0000111000001111" foes="1000111000001111" cont="0"/>
        <request index="7"  response="0110111000001110" foes="0110111000001110" cont="0"/>
        <request index="8"  response="0000000000000000" foes="0110000000000000" cont="0"/>
        <request index="9"  response="0000000000000000" foes="1110000011111000" cont="0"/>
        <request index="10" response="0000000000000000" foes="1110000011111000" cont="0"/>
        <request index="11" response="0000000000000110" foes="1110000011100110" cont="0"/>
        <request index="12" response="0000000000000110" foes="0000000000000110" cont="0"/>
        <request index="13" response="0000111100001110" foes="0000111110001110" cont="0"/>
        <request index="14" response="0000111100001110" foes="0000111110001110" cont="0"/>
        <request index="15" response="0000111001101110" foes="0000111001101110" cont="0"/>
    </junction>
    <junction id="north" type="dead_end" x="300.00" y="200.00" incLanes="mid_north_0 mid_north_1" intLanes="" shape="300.00,200.00 306.40,200.00 300.00,200.00"/>
    <junction id="south" type="priority" x="300.00" y="-200.00" incLanes="mid_south_0 mid_south_1 E12_0 E12_1 -E13_0 -E13_1" intLanes=":south_0_0 :south_1_0 :south_2_0 :south_3_0 :south_3_1 :south_5_0 :south_5_1 :south_8_0" shape="293.60,-189.60 306.40,-189.60 306.84,-191.82 307.40,-192.60 308.18,-193.16 309.18,-193.49 310.40,-193.60 310.40,-206.40 289.60,-206.40 289.60,-193.60 291.82,-193.16 292.60,-192.60 293.16,-191.82 293.49,-190.82">
        <request index="0" response="00011000" foes="00011000" cont="0"/>
        <request index="1" response="11111000" foes="11111000" cont="0"/>
        <request index="2" response="00000000" foes="00000000" cont="0"/>
        <request index="3" response="00000000" foes="10000011" cont="0"/>
        <request index="4" response="00000000" foes="10000011" cont="0"/>
        <request index="5" response="00000000" foes="00000010" cont="0"/>
        <request index="6" response="00000000" foes="00000010" cont="0"/>
        <request index="7" response="00011000" foes="00011010" cont="1"/>
    </junction>
    <junction id="west" type="priority" x="100.00" y="0.00" incLanes="mid_west_0 mid_west_1 E14_0 E14_1" intLanes=":west_0_0 :west_0_1 :west_2_0 :west_2_1" shape="106.40,6.40 106.40,-6.40 93.60,-6.40 93.96,-2.49 95.02,0.71 96.80,3.20 99.29,4.98 102.49,6.04">
        <request index="0" response="0000" foes="0000" cont="0"/>
        <request index="1" response="0000" foes="0000" cont="0"/>
        <request index="2" response="0000" foes="0000" cont="0"/>
        <request index="3" response="0000" foes="0000" cont="0"/>
    </junction>

    <junction id=":south_8_0" type="internal" x="294.56" y="-200.89" incLanes=":south_7_0 E12_0 E12_1" intLanes=":south_1_0 :south_3_0 :south_3_1"/>

    <connection from="-E11" to="east_mid" fromLane="0" toLane="0" via=":east_0_0" dir="l" state="M"/>
    <connection from="-E11" to="east_mid" fromLane="1" toLane="1" via=":east_0_1" dir="l" state="M"/>
    <connection from="-E12" to="-E11" fromLane="0" toLane="0" via=":J13_2_0" dir="l" state="M"/>
    <connection from="-E12" to="-E11" fromLane="1" toLane="1" via=":J13_2_1" dir="l" state="M"/>
    <connection from="-E13" to="-E12" fromLane="0" toLane="0" via=":south_5_0" dir="s" state="M"/>
    <connection from="-E13" to="-E12" fromLane="1" toLane="1" via=":south_5_1" dir="s" state="M"/>
    <connection from="-E13" to="south_mid" fromLane="1" toLane="1" via=":south_7_0" dir="l" state="m"/>
    <connection from="-E14" to="-E13" fromLane="0" toLane="0" via=":J15_0_0" dir="l" state="M"/>
    <connection from="-E14" to="-E13" fromLane="1" toLane="1" via=":J15_0_1" dir="l" state="M"/>
    <connection from="E11" to="E12" fromLane="0" toLane="0" via=":J13_0_0" dir="r" state="M"/>
    <connection from="E11" to="E12" fromLane="1" toLane="1" via=":J13_0_1" dir="r" state="M"/>
    <connection from="E12" to="south_mid" fromLane="0" toLane="0" via=":south_2_0" dir="r" state="M"/>
    <connection from="E12" to="E13" fromLane="0" toLane="0" via=":south_3_0" dir="s" state="M"/>
    <connection from="E12" to="E13" fromLane="1" toLane="1" via=":south_3_1" dir="s" state="M"/>
    <connection from="E13" to="E14" fromLane="0" toLane="0" via=":J15_2_0" dir="r" state="M"/>
    <connection from="E13" to="E14" fromLane="1" toLane="1" via=":J15_2_1" dir="r" state="M"/>
    <connection from="E14" to="west_mid" fromLane="0" toLane="0" via=":west_2_0" dir="r" state="M"/>
    <connection from="E14" to="west_mid" fromLane="1" toLane="1" via=":west_2_1" dir="r" state="M"/>
    <connection from="east_mid" to="mid_north" fromLane="0" toLane="0" via=":mid_4_0" tl="J11" linkIndex="4" dir="r" state="o"/>
    <connection from="east_mid" to="mid_west" fromLane="0" toLane="0" via=":mid_5_0" tl="J11" linkIndex="5" dir="s" state="o"/>
    <connection from="east_mid" to="mid_west" fromLane="1" toLane="1" via=":mid_5_1" tl="J11" linkIndex="6" dir="s" state="o"/>
    <connection from="east_mid" to="mid_south" fromLane="1" toLane="1" via=":mid_7_0" tl="J11" linkIndex="7" dir="l" state="o"/>
    <connection from="mid_east" to="E11" fromLane="0" toLane="0" via=":east_2_0" dir="r" state="M"/>
    <connection from="mid_east" to="E11" fromLane="1" toLane="1" via=":east_2_1" dir="r" state="M"/>
    <connection from="mid_south" to="E13" fromLane="0" toLane="0" via=":south_0_0" dir="r" state="m"/>
    <connection from="mid_south" to="-E12" fromLane="1" toLane="1" via=":south_1_0" dir="l" state="m"/>
    <connection from="mid_west" to="-E14" fromLane="0" toLane="0" via=":west_0_0" dir="l" state="M"/>
    <connection from="mid_west" to="-E14" fromLane="1" toLane="1" via=":west_0_1" dir="l" state="M"/>
    <connection from="north_mid" to="mid_west" fromLane="0" toLane="0" via=":mid_0_0" tl="J11" linkIndex="0" dir="r" state="O"/>
    <connection from="north_mid" to="mid_south" fromLane="0" toLane="0" via=":mid_1_0" tl="J11" linkIndex="1" dir="s" state="O"/>
    <connection from="north_mid" to="mid_south" fromLane="1" toLane="1" via=":mid_1_1" tl="J11" linkIndex="2" dir="s" state="O"/>
    <connection from="north_mid" to="mid_east" fromLane="1" toLane="1" via=":mid_3_0" tl="J11" linkIndex="3" dir="l" state="o"/>
    <connection from="south_mid" to="mid_east" fromLane="0" toLane="0" via=":mid_8_0" tl="J11" linkIndex="8" dir="r" state="O"/>
    <connection from="south_mid" to="mid_north" fromLane="0" toLane="0" via=":mid_9_0" tl="J11" linkIndex="9" dir="s" state="O"/>
    <connection from="south_mid" to="mid_north" fromLane="1" toLane="1" via=":mid_9_1" tl="J11" linkIndex="10" dir="s" state="O"/>
    <connection from="south_mid" to="mid_west" fromLane="1" toLane="1" via=":mid_11_0" tl="J11" linkIndex="11" dir="l" state="o"/>
    <connection from="west_mid" to="mid_south" fromLane="0" toLane="0" via=":mid_12_0" tl="J11" linkIndex="12" dir="r" state="o"/>
    <connection from="west_mid" to="mid_east" fromLane="0" toLane="0" via=":mid_13_0" tl="J11" linkIndex="13" dir="s" state="o"/>
    <connection from="west_mid" to="mid_east" fromLane="1" toLane="1" via=":mid_13_1" tl="J11" linkIndex="14" dir="s" state="o"/>
    <connection from="west_mid" to="mid_north" fromLane="1" toLane="1" via=":mid_15_0" tl="J11" linkIndex="15" dir="l" state="o"/>

    <connection from=":J13_0" to="E12" fromLane="0" toLane="0" dir="r" state="M"/>
    <connection from=":J13_0" to="E12" fromLane="1" toLane="1" dir="r" state="M"/>
    <connection from=":J13_2" to="-E11" fromLane="0" toLane="0" dir="l" state="M"/>
    <connection from=":J13_2" to="-E11" fromLane="1" toLane="1" dir="l" state="M"/>
    <connection from=":J15_0" to="-E13" fromLane="0" toLane="0" dir="l" state="M"/>
    <connection from=":J15_0" to="-E13" fromLane="1" toLane="1" dir="l" state="M"/>
    <connection from=":J15_2" to="E14" fromLane="0" toLane="0" dir="r" state="M"/>
    <connection from=":J15_2" to="E14" fromLane="1" toLane="1" dir="r" state="M"/>
    <connection from=":east_0" to="east_mid" fromLane="0" toLane="0" dir="l" state="M"/>
    <connection from=":east_0" to="east_mid" fromLane="1" toLane="1" dir="l" state="M"/>
    <connection from=":east_2" to="E11" fromLane="0" toLane="0" dir="r" state="M"/>
    <connection from=":east_2" to="E11" fromLane="1" toLane="1" dir="r" state="M"/>
    <connection from=":mid_0" to="mid_west" fromLane="0" toLane="0" dir="r" state="M"/>
    <connection from=":mid_1" to="mid_south" fromLane="0" toLane="0" dir="s" state="M"/>
    <connection from=":mid_1" to="mid_south" fromLane="1" toLane="1" dir="s" state="M"/>
    <connection from=":mid_3" to="mid_east" fromLane="0" toLane="1" dir="l" state="M"/>
    <connection from=":mid_4" to="mid_north" fromLane="0" toLane="0" dir="r" state="M"/>
    <connection from=":mid_5" to="mid_west" fromLane="0" toLane="0" dir="s" state="M"/>
    <connection from=":mid_5" to="mid_west" fromLane="1" toLane="1" dir="s" state="M"/>
    <connection from=":mid_7" to="mid_south" fromLane="0" toLane="1" dir="l" state="M"/>
    <connection from=":mid_8" to="mid_east" fromLane="0" toLane="0" dir="r" state="M"/>
    <connection from=":mid_9" to="mid_north" fromLane="0" toLane="0" dir="s" state="M"/>
    <connection from=":mid_9" to="mid_north" fromLane="1" toLane="1" dir="s" state="M"/>
    <connection from=":mid_11" to="mid_west" fromLane="0" toLane="1" dir="l" state="M"/>
    <connection from=":mid_12" to="mid_south" fromLane="0" toLane="0" dir="r" state="M"/>
    <connection from=":mid_13" to="mid_east" fromLane="0" toLane="0" dir="s" state="M"/>
    <connection from=":mid_13" to="mid_east" fromLane="1" toLane="1" dir="s" state="M"/>
    <connection from=":mid_15" to="mid_north" fromLane="0" toLane="1" dir="l" state="M"/>
    <connection from=":south_0" to="E13" fromLane="0" toLane="0" dir="r" state="M"/>
    <connection from=":south_1" to="-E12" fromLane="0" toLane="1" dir="l" state="M"/>
    <connection from=":south_2" to="south_mid" fromLane="0" toLane="0" dir="r" state="M"/>
    <connection from=":south_3" to="E13" fromLane="0" toLane="0" dir="s" state="M"/>
    <connection from=":south_3" to="E13" fromLane="1" toLane="1" dir="s" state="M"/>
    <connection from=":south_5" to="-E12" fromLane="0" toLane="0" dir="s" state="M"/>
    <connection from=":south_5" to="-E12" fromLane="1" toLane="1" dir="s" state="M"/>
    <connection from=":south_7" to="south_mid" fromLane="0" toLane="1" via=":south_8_0" dir="l" state="m"/>
    <connection from=":south_8" to="south_mid" fromLane="0" toLane="1" dir="l" state="M"/>
    <connection from=":west_0" to="-E14" fromLane="0" toLane="0" dir="l" state="M"/>
    <connection from=":west_0" to="-E14" fromLane="1" toLane="1" dir="l" state="M"/>
    <connection from=":west_2" to="west_mid" fromLane="0" toLane="0" dir="r" state="M"/>
    <connection from=":west_2" to="west_mid" fromLane="1" toLane="1" dir="r" state="M"/>

</net>
