<?xml version="1.0" encoding="UTF-8"?>

<!-- generated on 2025-09-09 22:25:44 by Eclipse SUMO netedit Version 1.24.0
<neteditConfiguration xmlns:xsi="http://www.w3.org/2001/XMLSchema-instance" xsi:noNamespaceSchemaLocation="http://sumo.dlr.de/xsd/neteditConfiguration.xsd">

    <input>
        <sumocfg-file value=".\RL.sumocfg"/>
        <additional-files value=".\RL.add.xml"/>
        <route-files value=".\trips.trips.xml"/>
        <sumo-net-file value=".\RL.net.xml"/>
    </input>

    <output>
        <output-file value=".\RL.net.xml"/>
    </output>

    <processing>
        <geometry.min-radius.fix.railways value="false"/>
        <geometry.avoid-overlap value="false"/>
        <geometry.max-grade.fix value="false"/>
        <offset.disable-normalization value="true"/>
        <lefthand value="0"/>
    </processing>

    <junctions>
        <no-turnarounds value="true"/>
        <junctions.corner-detail value="5"/>
        <junctions.limit-turn-speed value="5.50"/>
        <rectangular-lane-cut value="0"/>
    </junctions>

    <pedestrian>
        <walkingareas value="0"/>
    </pedestrian>

</neteditConfiguration>
-->

<net version="1.20" junctionCornerDetail="5" limitTurnSpeed="5.50" avoidOverlap="0" xmlns:xsi="http://www.w3.org/2001/XMLSchema-instance" xsi:noNamespaceSchemaLocation="http://sumo.dlr.de/xsd/net_file.xsd">

    <location netOffset="0.00,0.00" convBoundary="-100.00,-400.00,700.00,200.00" origBoundary="-10000000000.00,-10000000000.00,10000000000.00,10000000000.00" projParameter="!"/>

    <edge id=":1_0" function="internal">
        <lane id=":1_0_0" index="0" speed="26.95" length="0.10" shape="0.00,-198.40 0.00,-198.40"/>
    </edge>
    <edge id=":1_1" function="internal">
        <lane id=":1_1_0" index="0" speed="26.95" length="0.10" shape="0.00,-201.60 0.00,-201.60"/>
    </edge>
    <edge id=":10_0" function="internal">
        <lane id=":10_0_0" index="0" speed="6.51" length="9.03" shape="98.40,-192.80 98.05,-195.25 97.00,-197.00 95.25,-198.05 92.80,-198.40"/>
    </edge>
    <edge id=":10_1" function="internal">
        <lane id=":10_1_0" index="0" speed="13.89" length="14.40" shape="98.40,-192.80 98.40,-207.20"/>
    </edge>
    <edge id=":10_2" function="internal">
        <lane id=":10_2_0" index="0" speed="8.00" length="4.07" shape="98.40,-192.80 98.95,-196.65 99.04,-196.80"/>
    </edge>
    <edge id=":10_12" function="internal">
        <lane id=":10_12_0" index="0" speed="8.00" length="10.13" shape="99.04,-196.80 100.60,-199.40 103.35,-201.05 107.20,-201.60"/>
    </edge>
    <edge id=":10_3" function="internal">
        <lane id=":10_3_0" index="0" speed="6.51" length="9.03" shape="107.20,-198.40 104.75,-198.05 103.00,-197.00 101.95,-195.25 101.60,-192.80"/>
    </edge>
    <edge id=":10_4" function="internal">
        <lane id=":10_4_0" index="0" speed="13.89" length="14.40" shape="107.20,-198.40 92.80,-198.40"/>
    </edge>
    <edge id=":10_5" function="internal">
        <lane id=":10_5_0" index="0" speed="8.00" length="4.07" shape="107.20,-198.40 103.35,-198.95 103.20,-199.04"/>
    </edge>
    <edge id=":10_13" function="internal">
        <lane id=":10_13_0" index="0" speed="8.00" length="10.13" shape="103.20,-199.04 100.60,-200.60 98.95,-203.35 98.40,-207.20"/>
    </edge>
    <edge id=":10_6" function="internal">
        <lane id=":10_6_0" index="0" speed="6.51" length="9.03" shape="101.60,-207.20 101.95,-204.75 103.00,-203.00 104.75,-201.95 107.20,-201.60"/>
    </edge>
    <edge id=":10_7" function="internal">
        <lane id=":10_7_0" index="0" speed="13.89" length="14.40" shape="101.60,-207.20 101.60,-192.80"/>
    </edge>
    <edge id=":10_8" function="internal">
        <lane id=":10_8_0" index="0" speed="8.00" length="4.07" shape="101.60,-207.20 101.05,-203.35 100.96,-203.20"/>
    </edge>
    <edge id=":10_14" function="internal">
        <lane id=":10_14_0" index="0" speed="8.00" length="10.13" shape="100.96,-203.20 99.40,-200.60 96.65,-198.95 92.80,-198.40"/>
    </edge>
    <edge id=":10_9" function="internal">
        <lane id=":10_9_0" index="0" speed="6.51" length="9.03" shape="92.80,-201.60 95.25,-201.95 97.00,-203.00 98.05,-204.75 98.40,-207.20"/>
    </edge>
    <edge id=":10_10" function="internal">
        <lane id=":10_10_0" index="0" speed="13.89" length="14.40" shape="92.80,-201.60 107.20,-201.60"/>
    </edge>
    <edge id=":10_11" function="internal">
        <lane id=":10_11_0" index="0" speed="8.00" length="4.07" shape="92.80,-201.60 96.65,-201.05 96.80,-200.96"/>
    </edge>
    <edge id=":10_15" function="internal">
        <lane id=":10_15_0" index="0" speed="8.00" length="10.13" shape="96.80,-200.96 99.40,-199.40 101.05,-196.65 101.60,-192.80"/>
    </edge>
    <edge id=":11_0" function="internal">
        <lane id=":11_0_0" index="0" speed="40.00" length="0.10" shape="200.00,1.60 200.00,1.60"/>
    </edge>
    <edge id=":11_1" function="internal">
        <lane id=":11_1_0" index="0" speed="40.00" length="0.10" shape="200.00,-1.60 200.00,-1.60"/>
    </edge>
    <edge id=":12_0" function="internal">
        <lane id=":12_0_0" index="0" speed="13.89" length="0.10" shape="498.40,-300.00 498.40,-300.00"/>
    </edge>
    <edge id=":12_1" function="internal">
        <lane id=":12_1_0" index="0" speed="13.89" length="0.10" shape="501.60,-300.00 501.60,-300.00"/>
    </edge>
    <edge id=":13_0" function="internal">
        <lane id=":13_0_0" index="0" speed="13.89" length="0.10" shape="400.00,1.60 400.00,1.60"/>
    </edge>
    <edge id=":13_1" function="internal">
        <lane id=":13_1_0" index="0" speed="13.89" length="0.10" shape="400.00,-1.60 400.00,-1.60"/>
    </edge>
    <edge id=":14_0" function="internal">
        <lane id=":14_0_0" index="0" speed="13.89" length="0.10" shape="98.40,100.00 98.40,100.00"/>
    </edge>
    <edge id=":14_1" function="internal">
        <lane id=":14_1_0" index="0" speed="13.89" length="0.10" shape="101.60,100.00 101.60,100.00"/>
    </edge>
    <edge id=":15_0" function="internal">
        <lane id=":15_0_0" index="0" speed="13.89" length="0.10" shape="600.00,1.60 600.00,1.60"/>
    </edge>
    <edge id=":15_1" function="internal">
        <lane id=":15_1_0" index="0" speed="13.89" length="0.10" shape="600.00,-1.60 600.00,-1.60"/>
    </edge>
    <edge id=":16_0" function="internal">
        <lane id=":16_0_0" index="0" speed="13.89" length="0.10" shape="298.40,100.00 298.40,100.00"/>
    </edge>
    <edge id=":16_1" function="internal">
        <lane id=":16_1_0" index="0" speed="13.89" length="0.10" shape="301.60,100.00 301.60,100.00"/>
    </edge>
    <edge id=":18_0" function="internal">
        <lane id=":18_0_0" index="0" speed="13.89" length="0.10" shape="498.40,100.00 498.40,100.00"/>
    </edge>
    <edge id=":18_1" function="internal">
        <lane id=":18_1_0" index="0" speed="13.89" length="0.10" shape="501.60,100.00 501.60,100.00"/>
    </edge>
    <edge id=":2_0" function="internal">
        <lane id=":2_0_0" index="0" speed="26.95" length="0.10" shape="98.40,-100.00 98.40,-100.00"/>
    </edge>
    <edge id=":2_1" function="internal">
        <lane id=":2_1_0" index="0" speed="26.95" length="0.10" shape="101.60,-100.00 101.60,-100.00"/>
    </edge>
    <edge id=":20_0" function="internal">
        <lane id=":20_0_0" index="0" speed="6.51" length="9.03" shape="298.40,-192.80 298.05,-195.25 297.00,-197.00 295.25,-198.05 292.80,-198.40"/>
    </edge>
    <edge id=":20_1" function="internal">
        <lane id=":20_1_0" index="0" speed="40.00" length="14.40" shape="298.40,-192.80 298.40,-207.20"/>
    </edge>
    <edge id=":20_2" function="internal">
        <lane id=":20_2_0" index="0" speed="8.00" length="14.19" shape="298.40,-192.80 298.95,-196.65 300.60,-199.40 303.35,-201.05 307.20,-201.60"/>
    </edge>
    <edge id=":20_3" function="internal">
        <lane id=":20_3_0" index="0" speed="6.51" length="9.03" shape="307.20,-198.40 304.75,-198.05 303.00,-197.00 301.95,-195.25 301.60,-192.80"/>
    </edge>
    <edge id=":20_4" function="internal">
        <lane id=":20_4_0" index="0" speed="26.95" length="14.40" shape="307.20,-198.40 292.80,-198.40"/>
    </edge>
    <edge id=":20_5" function="internal">
        <lane id=":20_5_0" index="0" speed="8.00" length="14.19" shape="307.20,-198.40 303.35,-198.95 300.60,-200.60 298.95,-203.35 298.40,-207.20"/>
    </edge>
    <edge id=":20_6" function="internal">
        <lane id=":20_6_0" index="0" speed="6.51" length="9.03" shape="301.60,-207.20 301.95,-204.75 303.00,-203.00 304.75,-201.95 307.20,-201.60"/>
    </edge>
    <edge id=":20_7" function="internal">
        <lane id=":20_7_0" index="0" speed="40.00" length="14.40" shape="301.60,-207.20 301.60,-192.80"/>
    </edge>
    <edge id=":20_8" function="internal">
        <lane id=":20_8_0" index="0" speed="8.00" length="14.19" shape="301.60,-207.20 301.05,-203.35 299.40,-200.60 296.65,-198.95 292.80,-198.40"/>
    </edge>
    <edge id=":20_9" function="internal">
        <lane id=":20_9_0" index="0" speed="6.51" length="9.03" shape="292.80,-201.60 295.25,-201.95 297.00,-203.00 298.05,-204.75 298.40,-207.20"/>
    </edge>
    <edge id=":20_10" function="internal">
        <lane id=":20_10_0" index="0" speed="26.95" length="14.40" shape="292.80,-201.60 307.20,-201.60"/>
    </edge>
    <edge id=":20_11" function="internal">
        <lane id=":20_11_0" index="0" speed="8.00" length="14.19" shape="292.80,-201.60 296.65,-201.05 299.40,-199.40 301.05,-196.65 301.60,-192.80"/>
    </edge>
    <edge id=":22_0" function="internal">
        <lane id=":22_0_0" index="0" speed="26.95" length="0.10" shape="498.40,-100.00 498.40,-100.00"/>
    </edge>
    <edge id=":22_1" function="internal">
        <lane id=":22_1_0" index="0" speed="13.89" length="0.10" shape="501.60,-100.00 501.60,-100.00"/>
    </edge>
    <edge id=":3_0" function="internal">
        <lane id=":3_0_0" index="0" speed="26.95" length="0.10" shape="200.00,-198.40 200.00,-198.40"/>
    </edge>
    <edge id=":3_1" function="internal">
        <lane id=":3_1_0" index="0" speed="26.95" length="0.10" shape="200.00,-201.60 200.00,-201.60"/>
    </edge>
    <edge id=":30_0" function="internal">
        <lane id=":30_0_0" index="0" speed="6.51" length="9.03" shape="498.40,-192.80 498.05,-195.25 497.00,-197.00 495.25,-198.05 492.80,-198.40"/>
    </edge>
    <edge id=":30_1" function="internal">
        <lane id=":30_1_0" index="0" speed="13.89" length="14.40" shape="498.40,-192.80 498.40,-207.20"/>
    </edge>
    <edge id=":30_2" function="internal">
        <lane id=":30_2_0" index="0" speed="8.00" length="14.19" shape="498.40,-192.80 498.95,-196.65 500.60,-199.40 503.35,-201.05 507.20,-201.60"/>
    </edge>
    <edge id=":30_3" function="internal">
        <lane id=":30_3_0" index="0" speed="6.51" length="9.03" shape="507.20,-198.40 504.75,-198.05 503.00,-197.00 501.95,-195.25 501.60,-192.80"/>
    </edge>
    <edge id=":30_4" function="internal">
        <lane id=":30_4_0" index="0" speed="13.89" length="14.40" shape="507.20,-198.40 492.80,-198.40"/>
    </edge>
    <edge id=":30_5" function="internal">
        <lane id=":30_5_0" index="0" speed="8.00" length="14.19" shape="507.20,-198.40 503.35,-198.95 500.60,-200.60 498.95,-203.35 498.40,-207.20"/>
    </edge>
    <edge id=":30_6" function="internal">
        <lane id=":30_6_0" index="0" speed="6.51" length="9.03" shape="501.60,-207.20 501.95,-204.75 503.00,-203.00 504.75,-201.95 507.20,-201.60"/>
    </edge>
    <edge id=":30_7" function="internal">
        <lane id=":30_7_0" index="0" speed="13.89" length="14.40" shape="501.60,-207.20 501.60,-192.80"/>
    </edge>
    <edge id=":30_8" function="internal">
        <lane id=":30_8_0" index="0" speed="8.00" length="14.19" shape="501.60,-207.20 501.05,-203.35 499.40,-200.60 496.65,-198.95 492.80,-198.40"/>
    </edge>
    <edge id=":30_9" function="internal">
        <lane id=":30_9_0" index="0" speed="6.51" length="9.03" shape="492.80,-201.60 495.25,-201.95 497.00,-203.00 498.05,-204.75 498.40,-207.20"/>
    </edge>
    <edge id=":30_10" function="internal">
        <lane id=":30_10_0" index="0" speed="13.89" length="14.40" shape="492.80,-201.60 507.20,-201.60"/>
    </edge>
    <edge id=":30_11" function="internal">
        <lane id=":30_11_0" index="0" speed="8.00" length="14.19" shape="492.80,-201.60 496.65,-201.05 499.40,-199.40 501.05,-196.65 501.60,-192.80"/>
    </edge>
    <edge id=":4_0" function="internal">
        <lane id=":4_0_0" index="0" speed="26.95" length="0.10" shape="98.40,-300.00 98.40,-300.00"/>
    </edge>
    <edge id=":4_1" function="internal">
        <lane id=":4_1_0" index="0" speed="26.95" length="0.10" shape="101.60,-300.00 101.60,-300.00"/>
    </edge>
    <edge id=":40_0" function="internal">
        <lane id=":40_0_0" index="0" speed="6.51" length="9.03" shape="98.40,7.20 98.05,4.75 97.00,3.00 95.25,1.95 92.80,1.60"/>
    </edge>
    <edge id=":40_1" function="internal">
        <lane id=":40_1_0" index="0" speed="26.95" length="14.40" shape="98.40,7.20 98.40,-7.20"/>
    </edge>
    <edge id=":40_2" function="internal">
        <lane id=":40_2_0" index="0" speed="8.00" length="14.19" shape="98.40,7.20 98.95,3.35 100.60,0.60 103.35,-1.05 107.20,-1.60"/>
    </edge>
    <edge id=":40_3" function="internal">
        <lane id=":40_3_0" index="0" speed="6.51" length="9.03" shape="107.20,1.60 104.75,1.95 103.00,3.00 101.95,4.75 101.60,7.20"/>
    </edge>
    <edge id=":40_4" function="internal">
        <lane id=":40_4_0" index="0" speed="40.00" length="14.40" shape="107.20,1.60 92.80,1.60"/>
    </edge>
    <edge id=":40_5" function="internal">
        <lane id=":40_5_0" index="0" speed="8.00" length="14.19" shape="107.20,1.60 103.35,1.05 100.60,-0.60 98.95,-3.35 98.40,-7.20"/>
    </edge>
    <edge id=":40_6" function="internal">
        <lane id=":40_6_0" index="0" speed="6.51" length="9.03" shape="101.60,-7.20 101.95,-4.75 103.00,-3.00 104.75,-1.95 107.20,-1.60"/>
    </edge>
    <edge id=":40_7" function="internal">
        <lane id=":40_7_0" index="0" speed="26.95" length="14.40" shape="101.60,-7.20 101.60,7.20"/>
    </edge>
    <edge id=":40_8" function="internal">
        <lane id=":40_8_0" index="0" speed="8.00" length="14.19" shape="101.60,-7.20 101.05,-3.35 99.40,-0.60 96.65,1.05 92.80,1.60"/>
    </edge>
    <edge id=":40_9" function="internal">
        <lane id=":40_9_0" index="0" speed="6.51" length="9.03" shape="92.80,-1.60 95.25,-1.95 97.00,-3.00 98.05,-4.75 98.40,-7.20"/>
    </edge>
    <edge id=":40_10" function="internal">
        <lane id=":40_10_0" index="0" speed="40.00" length="14.40" shape="92.80,-1.60 107.20,-1.60"/>
    </edge>
    <edge id=":40_11" function="internal">
        <lane id=":40_11_0" index="0" speed="8.00" length="14.19" shape="92.80,-1.60 96.65,-1.05 99.40,0.60 101.05,3.35 101.60,7.20"/>
    </edge>
    <edge id=":5_0" function="internal">
        <lane id=":5_0_0" index="0" speed="13.89" length="0.10" shape="400.00,-198.40 400.00,-198.40"/>
    </edge>
    <edge id=":5_1" function="internal">
        <lane id=":5_1_0" index="0" speed="13.89" length="0.10" shape="400.00,-201.60 400.00,-201.60"/>
    </edge>
    <edge id=":50_0" function="internal">
        <lane id=":50_0_0" index="0" speed="6.51" length="9.03" shape="298.40,7.20 298.05,4.75 297.00,3.00 295.25,1.95 292.80,1.60"/>
    </edge>
    <edge id=":50_1" function="internal">
        <lane id=":50_1_0" index="0" speed="26.95" length="14.40" shape="298.40,7.20 298.40,-7.20"/>
    </edge>
    <edge id=":50_2" function="internal">
        <lane id=":50_2_0" index="0" speed="8.00" length="14.19" shape="298.40,7.20 298.95,3.35 300.60,0.60 303.35,-1.05 307.20,-1.60"/>
    </edge>
    <edge id=":50_3" function="internal">
        <lane id=":50_3_0" index="0" speed="6.51" length="9.03" shape="307.20,1.60 304.75,1.95 303.00,3.00 301.95,4.75 301.60,7.20"/>
    </edge>
    <edge id=":50_4" function="internal">
        <lane id=":50_4_0" index="0" speed="26.95" length="14.40" shape="307.20,1.60 292.80,1.60"/>
    </edge>
    <edge id=":50_5" function="internal">
        <lane id=":50_5_0" index="0" speed="8.00" length="14.19" shape="307.20,1.60 303.35,1.05 300.60,-0.60 298.95,-3.35 298.40,-7.20"/>
    </edge>
    <edge id=":50_6" function="internal">
        <lane id=":50_6_0" index="0" speed="6.51" length="9.03" shape="301.60,-7.20 301.95,-4.75 303.00,-3.00 304.75,-1.95 307.20,-1.60"/>
    </edge>
    <edge id=":50_7" function="internal">
        <lane id=":50_7_0" index="0" speed="26.95" length="14.40" shape="301.60,-7.20 301.60,7.20"/>
    </edge>
    <edge id=":50_8" function="internal">
        <lane id=":50_8_0" index="0" speed="8.00" length="14.19" shape="301.60,-7.20 301.05,-3.35 299.40,-0.60 296.65,1.05 292.80,1.60"/>
    </edge>
    <edge id=":50_9" function="internal">
        <lane id=":50_9_0" index="0" speed="6.51" length="9.03" shape="292.80,-1.60 295.25,-1.95 297.00,-3.00 298.05,-4.75 298.40,-7.20"/>
    </edge>
    <edge id=":50_10" function="internal">
        <lane id=":50_10_0" index="0" speed="26.95" length="14.40" shape="292.80,-1.60 307.20,-1.60"/>
    </edge>
    <edge id=":50_11" function="internal">
        <lane id=":50_11_0" index="0" speed="8.00" length="14.19" shape="292.80,-1.60 296.65,-1.05 299.40,0.60 301.05,3.35 301.60,7.20"/>
    </edge>
    <edge id=":6_0" function="internal">
        <lane id=":6_0_0" index="0" speed="40.00" length="0.10" shape="298.40,-100.00 298.40,-100.00"/>
    </edge>
    <edge id=":6_1" function="internal">
        <lane id=":6_1_0" index="0" speed="40.00" length="0.10" shape="301.60,-100.00 301.60,-100.00"/>
    </edge>
    <edge id=":60_0" function="internal">
        <lane id=":60_0_0" index="0" speed="6.51" length="9.03" shape="498.40,7.20 498.05,4.75 497.00,3.00 495.25,1.95 492.80,1.60"/>
    </edge>
    <edge id=":60_1" function="internal">
        <lane id=":60_1_0" index="0" speed="26.95" length="14.40" shape="498.40,7.20 498.40,-7.20"/>
    </edge>
    <edge id=":60_2" function="internal">
        <lane id=":60_2_0" index="0" speed="8.00" length="14.19" shape="498.40,7.20 498.95,3.35 500.60,0.60 503.35,-1.05 507.20,-1.60"/>
    </edge>
    <edge id=":60_3" function="internal">
        <lane id=":60_3_0" index="0" speed="6.51" length="9.03" shape="507.20,1.60 504.75,1.95 503.00,3.00 501.95,4.75 501.60,7.20"/>
    </edge>
    <edge id=":60_4" function="internal">
        <lane id=":60_4_0" index="0" speed="13.89" length="14.40" shape="507.20,1.60 492.80,1.60"/>
    </edge>
    <edge id=":60_5" function="internal">
        <lane id=":60_5_0" index="0" speed="8.00" length="14.19" shape="507.20,1.60 503.35,1.05 500.60,-0.60 498.95,-3.35 498.40,-7.20"/>
    </edge>
    <edge id=":60_6" function="internal">
        <lane id=":60_6_0" index="0" speed="6.51" length="9.03" shape="501.60,-7.20 501.95,-4.75 503.00,-3.00 504.75,-1.95 507.20,-1.60"/>
    </edge>
    <edge id=":60_7" function="internal">
        <lane id=":60_7_0" index="0" speed="13.89" length="14.40" shape="501.60,-7.20 501.60,7.20"/>
    </edge>
    <edge id=":60_8" function="internal">
        <lane id=":60_8_0" index="0" speed="8.00" length="14.19" shape="501.60,-7.20 501.05,-3.35 499.40,-0.60 496.65,1.05 492.80,1.60"/>
    </edge>
    <edge id=":60_9" function="internal">
        <lane id=":60_9_0" index="0" speed="6.51" length="9.03" shape="492.80,-1.60 495.25,-1.95 497.00,-3.00 498.05,-4.75 498.40,-7.20"/>
    </edge>
    <edge id=":60_10" function="internal">
        <lane id=":60_10_0" index="0" speed="13.89" length="14.40" shape="492.80,-1.60 507.20,-1.60"/>
    </edge>
    <edge id=":60_11" function="internal">
        <lane id=":60_11_0" index="0" speed="8.00" length="14.19" shape="492.80,-1.60 496.65,-1.05 499.40,0.60 501.05,3.35 501.60,7.20"/>
    </edge>
    <edge id=":7_0" function="internal">
        <lane id=":7_0_0" index="0" speed="13.89" length="0.10" shape="600.00,-198.40 600.00,-198.40"/>
    </edge>
    <edge id=":7_1" function="internal">
        <lane id=":7_1_0" index="0" speed="13.89" length="0.10" shape="600.00,-201.60 600.00,-201.60"/>
    </edge>
    <edge id=":8_0" function="internal">
        <lane id=":8_0_0" index="0" speed="40.00" length="0.10" shape="298.40,-300.00 298.40,-300.00"/>
    </edge>
    <edge id=":8_1" function="internal">
        <lane id=":8_1_0" index="0" speed="40.00" length="0.10" shape="301.60,-300.00 301.60,-300.00"/>
    </edge>
    <edge id=":9_0" function="internal">
        <lane id=":9_0_0" index="0" speed="40.00" length="0.10" shape="0.00,1.60 0.00,1.60"/>
    </edge>
    <edge id=":9_1" function="internal">
        <lane id=":9_1_0" index="0" speed="40.00" length="0.10" shape="0.00,-1.60 0.00,-1.60"/>
    </edge>
    <edge id=":J10_0" function="internal">
        <lane id=":J10_0_0" index="0" speed="13.89" length="0.10" shape="698.40,-300.00 698.40,-300.00"/>
    </edge>
    <edge id=":J10_1" function="internal">
        <lane id=":J10_1_0" index="0" speed="13.89" length="0.10" shape="701.60,-300.00 701.60,-300.00"/>
    </edge>
    <edge id=":J11_0" function="internal">
        <lane id=":J11_0_0" index="0" speed="3.90" length="2.58" shape="698.40,-396.80 698.30,-397.50 698.00,-398.00 697.50,-398.30 696.80,-398.40"/>
    </edge>
    <edge id=":J11_1" function="internal">
        <lane id=":J11_1_0" index="0" speed="6.08" length="7.74" shape="696.80,-401.60 698.90,-401.30 700.40,-400.40 701.30,-398.90 701.60,-396.80"/>
    </edge>
    <edge id=":J12_0" function="internal">
        <lane id=":J12_0_0" index="0" speed="13.89" length="0.10" shape="600.00,-398.40 600.00,-398.40"/>
    </edge>
    <edge id=":J12_1" function="internal">
        <lane id=":J12_1_0" index="0" speed="13.89" length="0.10" shape="600.00,-401.60 600.00,-401.60"/>
    </edge>
    <edge id=":J13_0" function="internal">
        <lane id=":J13_0_0" index="0" speed="6.51" length="9.03" shape="498.40,-392.80 498.05,-395.25 497.00,-397.00 495.25,-398.05 492.80,-398.40"/>
    </edge>
    <edge id=":J13_1" function="internal">
        <lane id=":J13_1_0" index="0" speed="8.00" length="14.19" shape="498.40,-392.80 498.95,-396.65 500.60,-399.40 503.35,-401.05 507.20,-401.60"/>
    </edge>
    <edge id=":J13_2" function="internal">
        <lane id=":J13_2_0" index="0" speed="6.51" length="9.03" shape="507.20,-398.40 504.75,-398.05 503.00,-397.00 501.95,-395.25 501.60,-392.80"/>
    </edge>
    <edge id=":J13_3" function="internal">
        <lane id=":J13_3_0" index="0" speed="13.89" length="14.40" shape="507.20,-398.40 492.80,-398.40"/>
    </edge>
    <edge id=":J13_4" function="internal">
        <lane id=":J13_4_0" index="0" speed="13.89" length="14.40" shape="492.80,-401.60 507.20,-401.60"/>
    </edge>
    <edge id=":J13_5" function="internal">
        <lane id=":J13_5_0" index="0" speed="8.00" length="4.07" shape="492.80,-401.60 496.65,-401.05 496.80,-400.96"/>
    </edge>
    <edge id=":J13_6" function="internal">
        <lane id=":J13_6_0" index="0" speed="8.00" length="10.13" shape="496.80,-400.96 499.40,-399.40 501.05,-396.65 501.60,-392.80"/>
    </edge>
    <edge id=":J14_0" function="internal">
        <lane id=":J14_0_0" index="0" speed="13.89" length="0.10" shape="400.00,-398.40 400.00,-398.40"/>
    </edge>
    <edge id=":J14_1" function="internal">
        <lane id=":J14_1_0" index="0" speed="13.89" length="0.10" shape="400.00,-401.60 400.00,-401.60"/>
    </edge>
    <edge id=":J2_0" function="internal">
        <lane id=":J2_0_0" index="0" speed="26.95" length="14.40" shape="-101.60,7.20 -101.60,-7.20"/>
    </edge>
    <edge id=":J2_1" function="internal">
        <lane id=":J2_1_0" index="0" speed="8.00" length="14.19" shape="-101.60,7.20 -101.05,3.35 -99.40,0.60 -96.65,-1.05 -92.80,-1.60"/>
    </edge>
    <edge id=":J2_2" function="internal">
        <lane id=":J2_2_0" index="0" speed="6.51" length="9.03" shape="-92.80,1.60 -95.25,1.95 -97.00,3.00 -98.05,4.75 -98.40,7.20"/>
    </edge>
    <edge id=":J2_3" function="internal">
        <lane id=":J2_3_0" index="0" speed="8.00" length="14.19" shape="-92.80,1.60 -96.65,1.05 -99.40,-0.60 -101.05,-3.35 -101.60,-7.20"/>
    </edge>
    <edge id=":J2_4" function="internal">
        <lane id=":J2_4_0" index="0" speed="6.51" length="9.03" shape="-98.40,-7.20 -98.05,-4.75 -97.00,-3.00 -95.25,-1.95 -92.80,-1.60"/>
    </edge>
    <edge id=":J2_5" function="internal">
        <lane id=":J2_5_0" index="0" speed="26.95" length="14.40" shape="-98.40,-7.20 -98.40,7.20"/>
    </edge>
    <edge id=":J20_0" function="internal">
        <lane id=":J20_0_0" index="0" speed="13.89" length="0.10" shape="-101.60,100.00 -101.60,100.00"/>
    </edge>
    <edge id=":J20_1" function="internal">
        <lane id=":J20_1_0" index="0" speed="13.89" length="0.10" shape="-98.40,100.00 -98.40,100.00"/>
    </edge>
    <edge id=":J25_0" function="internal">
        <lane id=":J25_0_0" index="0" speed="6.51" length="9.03" shape="298.40,-392.80 298.05,-395.25 297.00,-397.00 295.25,-398.05 292.80,-398.40"/>
    </edge>
    <edge id=":J25_1" function="internal">
        <lane id=":J25_1_0" index="0" speed="8.00" length="2.51" shape="298.40,-392.80 298.76,-395.29"/>
    </edge>
    <edge id=":J25_6" function="internal">
        <lane id=":J25_6_0" index="0" speed="8.00" length="11.68" shape="298.76,-395.29 298.95,-396.65 300.60,-399.40 303.35,-401.05 307.20,-401.60"/>
    </edge>
    <edge id=":J25_2" function="internal">
        <lane id=":J25_2_0" index="0" speed="6.51" length="9.03" shape="307.20,-398.40 304.75,-398.05 303.00,-397.00 301.95,-395.25 301.60,-392.80"/>
    </edge>
    <edge id=":J25_3" function="internal">
        <lane id=":J25_3_0" index="0" speed="26.95" length="14.40" shape="307.20,-398.40 292.80,-398.40"/>
    </edge>
    <edge id=":J25_4" function="internal">
        <lane id=":J25_4_0" index="0" speed="26.95" length="14.40" shape="292.80,-401.60 307.20,-401.60"/>
    </edge>
    <edge id=":J25_5" function="internal">
        <lane id=":J25_5_0" index="0" speed="8.00" length="14.19" shape="292.80,-401.60 296.65,-401.05 299.40,-399.40 301.05,-396.65 301.60,-392.80"/>
    </edge>
    <edge id=":J26_0" function="internal">
        <lane id=":J26_0_0" index="0" speed="40.00" length="0.10" shape="200.00,-398.40 200.00,-398.40"/>
    </edge>
    <edge id=":J26_1" function="internal">
        <lane id=":J26_1_0" index="0" speed="40.00" length="0.10" shape="200.00,-401.60 200.00,-401.60"/>
    </edge>
    <edge id=":J27_0" function="internal">
        <lane id=":J27_0_0" index="0" speed="6.51" length="9.03" shape="98.40,-392.80 98.05,-395.25 97.00,-397.00 95.25,-398.05 92.80,-398.40"/>
    </edge>
    <edge id=":J27_1" function="internal">
        <lane id=":J27_1_0" index="0" speed="8.00" length="14.19" shape="98.40,-392.80 98.95,-396.65 100.60,-399.40 103.35,-401.05 107.20,-401.60"/>
    </edge>
    <edge id=":J27_2" function="internal">
        <lane id=":J27_2_0" index="0" speed="6.51" length="9.03" shape="107.20,-398.40 104.75,-398.05 103.00,-397.00 101.95,-395.25 101.60,-392.80"/>
    </edge>
    <edge id=":J27_3" function="internal">
        <lane id=":J27_3_0" index="0" speed="40.00" length="14.40" shape="107.20,-398.40 92.80,-398.40"/>
    </edge>
    <edge id=":J27_4" function="internal">
        <lane id=":J27_4_0" index="0" speed="40.00" length="14.40" shape="92.80,-401.60 107.20,-401.60"/>
    </edge>
    <edge id=":J27_5" function="internal">
        <lane id=":J27_5_0" index="0" speed="8.00" length="4.07" shape="92.80,-401.60 96.65,-401.05 96.80,-400.96"/>
    </edge>
    <edge id=":J27_6" function="internal">
        <lane id=":J27_6_0" index="0" speed="8.00" length="10.13" shape="96.80,-400.96 99.40,-399.40 101.05,-396.65 101.60,-392.80"/>
    </edge>
    <edge id=":J28_0" function="internal">
        <lane id=":J28_0_0" index="0" speed="40.00" length="0.10" shape="0.00,-398.40 0.00,-398.40"/>
    </edge>
    <edge id=":J28_1" function="internal">
        <lane id=":J28_1_0" index="0" speed="40.00" length="0.10" shape="0.00,-401.60 0.00,-401.60"/>
    </edge>
    <edge id=":J29_0" function="internal">
        <lane id=":J29_0_0" index="0" speed="6.08" length="7.74" shape="-101.60,-396.80 -101.30,-398.90 -100.40,-400.40 -98.90,-401.30 -96.80,-401.60"/>
    </edge>
    <edge id=":J29_1" function="internal">
        <lane id=":J29_1_0" index="0" speed="3.90" length="2.58" shape="-96.80,-398.40 -97.50,-398.30 -98.00,-398.00 -98.30,-397.50 -98.40,-396.80"/>
    </edge>
    <edge id=":J30_0" function="internal">
        <lane id=":J30_0_0" index="0" speed="40.00" length="0.10" shape="-101.60,-300.00 -101.60,-300.00"/>
    </edge>
    <edge id=":J30_1" function="internal">
        <lane id=":J30_1_0" index="0" speed="40.00" length="0.10" shape="-98.40,-300.00 -98.40,-300.00"/>
    </edge>
    <edge id=":J31_0" function="internal">
        <lane id=":J31_0_0" index="0" speed="40.00" length="14.40" shape="-101.60,-192.80 -101.60,-207.20"/>
    </edge>
    <edge id=":J31_1" function="internal">
        <lane id=":J31_1_0" index="0" speed="8.00" length="4.07" shape="-101.60,-192.80 -101.05,-196.65 -100.96,-196.80"/>
    </edge>
    <edge id=":J31_6" function="internal">
        <lane id=":J31_6_0" index="0" speed="8.00" length="10.13" shape="-100.96,-196.80 -99.40,-199.40 -96.65,-201.05 -92.80,-201.60"/>
    </edge>
    <edge id=":J31_2" function="internal">
        <lane id=":J31_2_0" index="0" speed="6.51" length="9.03" shape="-92.80,-198.40 -95.25,-198.05 -97.00,-197.00 -98.05,-195.25 -98.40,-192.80"/>
    </edge>
    <edge id=":J31_3" function="internal">
        <lane id=":J31_3_0" index="0" speed="8.00" length="14.19" shape="-92.80,-198.40 -96.65,-198.95 -99.40,-200.60 -101.05,-203.35 -101.60,-207.20"/>
    </edge>
    <edge id=":J31_4" function="internal">
        <lane id=":J31_4_0" index="0" speed="6.51" length="9.03" shape="-98.40,-207.20 -98.05,-204.75 -97.00,-203.00 -95.25,-201.95 -92.80,-201.60"/>
    </edge>
    <edge id=":J31_5" function="internal">