<?xml version="1.0" encoding="UTF-8"?>

<!-- generated on 2025-09-04 19:03:13 by Eclipse SUMO netedit Version 1.24.0
-->

<additional xmlns:xsi="http://www.w3.org/2001/XMLSchema-instance" xsi:noNamespaceSchemaLocation="http://sumo.dlr.de/xsd/additional_file.xsd">
    <!-- Detectors -->
    <laneAreaDetector id="Node1_2_EB_0" lane="Node1_2_EB_0" pos="160.42" length="10.00" period="300.00" file="e2_0.xml"/>
    <laneAreaDetector id="Node1_2_EB_1" lane="Node1_2_EB_1" pos="160.49" length="10.00" period="300.00" file="e2_1.xml"/>
    <laneAreaDetector id="Node1_2_EB_2" lane="Node1_2_EB_2" pos="160.29" length="10.00" period="300.00" file="e2_2.xml"/>
    <laneAreaDetector id="Node2_3_WB_0" lane="Node2_3_WB_0" pos="161.67" length="10.00" period="300.00" file="e2_6.xml"/>
    <laneAreaDetector id="Node2_3_WB_1" lane="Node2_3_WB_1" pos="161.67" length="10.00" period="300.00" file="e2_7.xml"/>
    <laneAreaDetector id="Node2_3_WB_2" lane="Node2_3_WB_2" pos="161.80" length="10.00" period="300.00" file="e2_8.xml"/>
    <laneAreaDetector id="Node2_5_NB_0" lane="Node2_5_NB_0" pos="157.60" length="10.00" period="300.00" file="e2_10.xml"/>
    <laneAreaDetector id="Node2_5_NB_1" lane="Node2_5_NB_1" pos="157.73" length="10.00" period="300.00" file="e2_9.xml"/>
    <laneAreaDetector id="Node2_5_NB_2" lane="Node2_5_NB_2" pos="157.80" length="10.00" period="300.00" file="e2_11.xml"/>
    <laneAreaDetector id="Node2_7_SB_0" lane="Node2_7_SB_0" pos="169.24" length="10.00" period="300.00" file="e2_4.xml"/>
    <laneAreaDetector id="Node2_7_SB_1" lane="Node2_7_SB_1" pos="168.72" length="10.00" period="300.00" file="e2_3.xml"/>
    <laneAreaDetector id="Node2_7_SB_2" lane="Node2_7_SB_2" pos="168.98" length="10.00" period="300.00" file="e2_5.xml"/>
</additional>
