<?xml version="1.0" encoding="UTF-8"?>

<!-- generated on 2025-09-04 19:51:09 by Eclipse SUMO netedit Version 1.24.0
<neteditConfiguration xmlns:xsi="http://www.w3.org/2001/XMLSchema-instance" xsi:noNamespaceSchemaLocation="http://sumo.dlr.de/xsd/neteditConfiguration.xsd">

    <input>
        <sumocfg-file value="C:\vinay project\map\map\RL.sumocfg"/>
        <additional-files value="C:\vinay project\map\map\RL.add.xml"/>
        <sumo-net-file value="C:\vinay project\map\map\RL.net.xml"/>
    </input>

    <output>
        <output-file value="C:\vinay project\map\map\RL.net.xml"/>
    </output>

    <processing>
        <geometry.min-radius.fix.railways value="false"/>
        <geometry.avoid-overlap value="false"/>
        <geometry.max-grade.fix value="false"/>
        <offset.disable-normalization value="true"/>
        <lefthand value="0"/>
    </processing>

    <junctions>
        <no-turnarounds value="true"/>
        <junctions.corner-detail value="5"/>
        <junctions.limit-turn-speed value="5.50"/>
        <rectangular-lane-cut value="0"/>
    </junctions>

    <pedestrian>
        <walkingareas value="0"/>
    </pedestrian>

    <netedit>
        <ignore.routeelements value="false"/>
    </netedit>

</neteditConfiguration>
-->

<net version="1.20" junctionCornerDetail="5" limitTurnSpeed="5.50" avoidOverlap="0" xmlns:xsi="http://www.w3.org/2001/XMLSchema-instance" xsi:noNamespaceSchemaLocation="http://sumo.dlr.de/xsd/net_file.xsd">

    <location netOffset="0.00,0.00" convBoundary="-200.00,-100.00,200.00,300.00" origBoundary="-10000000000.00,-10000000000.00,10000000000.00,10000000000.00" projParameter="!"/>

    <edge id=":Node1_0" function="internal">
        <lane id=":Node1_0_0" index="0" speed="11.12" length="28.38" shape="-190.40,108.00 -198.10,106.90 -203.60,103.60 -206.90,98.10 -208.00,90.40"/>
        <lane id=":Node1_0_1" index="1" speed="10.10" length="23.22" shape="-190.40,104.80 -196.70,103.90 -201.20,101.20 -203.90,96.70 -204.80,90.40"/>
        <lane id=":Node1_0_2" index="2" speed="8.96" length="18.06" shape="-190.40,101.60 -195.30,100.90 -198.80,98.80 -200.90,95.30 -201.60,90.40"/>
    </edge>
    <edge id=":Node1_3" function="internal">
        <lane id=":Node1_3_0" index="0" speed="3.90" length="2.58" shape="-192.00,90.40 -191.90,91.10 -191.60,91.60 -191.10,91.90 -190.40,92.00"/>
        <lane id=":Node1_3_1" index="1" speed="6.08" length="7.74" shape="-195.20,90.40 -194.90,92.50 -194.00,94.00 -192.50,94.90 -190.40,95.20"/>
        <lane id=":Node1_3_2" index="2" speed="7.66" length="12.90" shape="-198.40,90.40 -197.90,93.90 -196.40,96.40 -193.90,97.90 -190.40,98.40"/>
    </edge>
    <edge id=":Node2_0" function="internal">
        <lane id=":Node2_0_0" index="0" speed="6.51" length="9.03" shape="-8.00,113.60 -8.35,111.15 -9.40,109.40 -11.15,108.35 -13.60,108.00"/>
    </edge>
    <edge id=":Node2_1" function="internal">
        <lane id=":Node2_1_0" index="0" speed="13.89" length="27.20" shape="-8.00,113.60 -8.00,86.40"/>
        <lane id=":Node2_1_1" index="1" speed="13.89" length="27.20" shape="-4.80,113.60 -4.80,86.40"/>
        <lane id=":Node2_1_2" index="2" speed="13.89" length="27.20" shape="-1.60,113.60 -1.60,86.40"/>
    </edge>
    <edge id=":Node2_4" function="internal">
        <lane id=":Node2_4_0" index="0" speed="10.36" length="5.01" shape="-1.60,113.60 -0.89,108.64"/>
    </edge>
    <edge id=":Node2_20" function="internal">
        <lane id=":Node2_20_0" index="0" speed="10.36" length="19.50" shape="-0.89,108.64 -0.65,106.95 2.20,102.20 6.95,99.35 13.60,98.40"/>
    </edge>
    <edge id=":Node2_5" function="internal">
        <lane id=":Node2_5_0" index="0" speed="6.51" length="9.03" shape="13.60,108.00 11.15,108.35 9.40,109.40 8.35,111.15 8.00,113.60"/>
    </edge>
    <edge id=":Node2_6" function="internal">
        <lane id=":Node2_6_0" index="0" speed="13.89" length="27.20" shape="13.60,108.00 -13.60,108.00"/>
        <lane id=":Node2_6_1" index="1" speed="13.89" length="27.20" shape="13.60,104.80 -13.60,104.80"/>
        <lane id=":Node2_6_2" index="2" speed="13.89" length="27.20" shape="13.60,101.60 -13.60,101.60"/>
    </edge>
    <edge id=":Node2_9" function="internal">
        <lane id=":Node2_9_0" index="0" speed="10.36" length="5.01" shape="13.60,101.60 8.64,100.89"/>
    </edge>
    <edge id=":Node2_21" function="internal">
        <lane id=":Node2_21_0" index="0" speed="10.36" length="19.50" shape="8.64,100.89 6.95,100.65 2.20,97.80 -0.65,93.05 -1.60,86.40"/>
    </edge>
    <edge id=":Node2_10" function="internal">
        <lane id=":Node2_10_0" index="0" speed="6.51" length="9.03" shape="8.00,86.40 8.35,88.85 9.40,90.60 11.15,91.65 13.60,92.00"/>
    </edge>
    <edge id=":Node2_11" function="internal">
        <lane id=":Node2_11_0" index="0" speed="13.89" length="27.20" shape="8.00,86.40 8.00,113.60"/>
        <lane id=":Node2_11_1" index="1" speed="13.89" length="27.20" shape="4.80,86.40 4.80,113.60"/>
        <lane id=":Node2_11_2" index="2" speed="13.89" length="27.20" shape="1.60,86.40 1.60,113.60"/>
    </edge>
    <edge id=":Node2_14" function="internal">
        <lane id=":Node2_14_0" index="0" speed="10.36" length="5.01" shape="1.60,86.40 0.89,91.36"/>
    </edge>
    <edge id=":Node2_22" function="internal">
        <lane id=":Node2_22_0" index="0" speed="10.36" length="19.50" shape="0.89,91.36 0.65,93.05 -2.20,97.80 -6.95,100.65 -13.60,101.60"/>
    </edge>
    <edge id=":Node2_15" function="internal">
        <lane id=":Node2_15_0" index="0" speed="6.51" length="9.03" shape="-13.60,92.00 -11.15,91.65 -9.40,90.60 -8.35,88.85 -8.00,86.40"/>
    </edge>
    <edge id=":Node2_16" function="internal">
        <lane id=":Node2_16_0" index="0" speed="13.89" length="27.20" shape="-13.60,92.00 13.60,92.00"/>
        <lane id=":Node2_16_1" index="1" speed="13.89" length="27.20" shape="-13.60,95.20 13.60,95.20"/>
        <lane id=":Node2_16_2" index="2" speed="13.89" length="27.20" shape="-13.60,98.40 13.60,98.40"/>
    </edge>
    <edge id=":Node2_19" function="internal">
        <lane id=":Node2_19_0" index="0" speed="10.36" length="5.01" shape="-13.60,98.40 -8.64,99.11"/>
    </edge>
    <edge id=":Node2_23" function="internal">
        <lane id=":Node2_23_0" index="0" speed="10.36" length="19.50" shape="-8.64,99.11 -6.95,99.35 -2.20,102.20 0.65,106.95 1.60,113.60"/>
    </edge>
    <edge id=":Node3_0" function="internal">
        <lane id=":Node3_0_0" index="0" speed="11.12" length="28.38" shape="208.00,90.40 206.90,98.10 203.60,103.60 198.10,106.90 190.40,108.00"/>
        <lane id=":Node3_0_1" index="1" speed="10.10" length="23.22" shape="204.80,90.40 203.90,96.70 201.20,101.20 196.70,103.90 190.40,104.80"/>
        <lane id=":Node3_0_2" index="2" speed="8.96" length="18.06" shape="201.60,90.40 200.90,95.30 198.80,98.80 195.30,100.90 190.40,101.60"/>
    </edge>
    <edge id=":Node3_3" function="internal">
        <lane id=":Node3_3_0" index="0" speed="3.90" length="2.58" shape="190.40,92.00 191.10,91.90 191.60,91.60 191.90,91.10 192.00,90.40"/>
        <lane id=":Node3_3_1" index="1" speed="6.08" length="7.74" shape="190.40,95.20 192.50,94.90 194.00,94.00 194.90,92.50 195.20,90.40"/>
        <lane id=":Node3_3_2" index="2" speed="7.66" length="12.90" shape="190.40,98.40 193.90,97.90 196.40,96.40 197.90,93.90 198.40,90.40"/>
    </edge>
    <edge id=":Node4_0" function="internal">
        <lane id=":Node4_0_0" index="0" speed="11.12" length="28.38" shape="-208.00,-90.40 -206.90,-98.10 -203.60,-103.60 -198.10,-106.90 -190.40,-108.00"/>
        <lane id=":Node4_0_1" index="1" speed="10.10" length="23.22" shape="-204.80,-90.40 -203.90,-96.70 -201.20,-101.20 -196.70,-103.90 -190.40,-104.80"/>
        <lane id=":Node4_0_2" index="2" speed="8.96" length="18.06" shape="-201.60,-90.40 -200.90,-95.30 -198.80,-98.80 -195.30,-100.90 -190.40,-101.60"/>
    </edge>
    <edge id=":Node4_3" function="internal">
        <lane id=":Node4_3_0" index="0" speed="3.90" length="2.58" shape="-190.40,-92.00 -191.10,-91.90 -191.60,-91.60 -191.90,-91.10 -192.00,-90.40"/>
        <lane id=":Node4_3_1" index="1" speed="6.08" length="7.74" shape="-190.40,-95.20 -192.50,-94.90 -194.00,-94.00 -194.90,-92.50 -195.20,-90.40"/>
        <lane id=":Node4_3_2" index="2" speed="7.66" length="12.90" shape="-190.40,-98.40 -193.90,-97.90 -196.40,-96.40 -197.90,-93.90 -198.40,-90.40"/>
    </edge>
    <edge id=":Node5_0" function="internal">
        <lane id=":Node5_0_0" index="0" speed="6.51" length="9.03" shape="-8.00,-86.40 -8.35,-88.85 -9.40,-90.60 -11.15,-91.65 -13.60,-92.00"/>
        <lane id=":Node5_0_1" index="1" speed="8.00" length="14.19" shape="-4.80,-86.40 -5.35,-90.25 -7.00,-93.00 -9.75,-94.65 -13.60,-95.20"/>
    </edge>
    <edge id=":Node5_2" function="internal">
        <lane id=":Node5_2_0" index="0" speed="11.36" length="29.67" shape="-4.80,-86.40 -3.65,-94.45 -0.20,-100.20 5.55,-103.65 13.60,-104.80"/>
        <lane id=":Node5_2_1" index="1" speed="10.36" length="24.51" shape="-1.60,-86.40 -0.65,-93.05 2.20,-97.80 6.95,-100.65 13.60,-101.60"/>
    </edge>
    <edge id=":Node5_4" function="internal">
        <lane id=":Node5_4_0" index="0" speed="6.51" length="9.03" shape="13.60,-92.00 11.15,-91.65 9.40,-90.60 8.35,-88.85 8.00,-86.40"/>
    </edge>
    <edge id=":Node5_5" function="internal">
        <lane id=":Node5_5_0" index="0" speed="13.89" length="27.20" shape="13.60,-92.00 -13.60,-92.00"/>
        <lane id=":Node5_5_1" index="1" speed="13.89" length="27.20" shape="13.60,-95.20 -13.60,-95.20"/>
        <lane id=":Node5_5_2" index="2" speed="13.89" length="27.20" shape="13.60,-98.40 -13.60,-98.40"/>
    </edge>
    <edge id=":Node5_8" function="internal">
        <lane id=":Node5_8_0" index="0" speed="13.89" length="27.20" shape="-13.60,-108.00 13.60,-108.00"/>
        <lane id=":Node5_8_1" index="1" speed="13.89" length="27.20" shape="-13.60,-104.80 13.60,-104.80"/>
        <lane id=":Node5_8_2" index="2" speed="13.89" length="27.20" shape="-13.60,-101.60 13.60,-101.60"/>
    </edge>
    <edge id=":Node5_11" function="internal">
        <lane id=":Node5_11_0" index="0" speed="10.88" length="6.03" shape="-13.60,-101.60 -7.62,-100.89"/>
        <lane id=":Node5_11_1" index="1" speed="10.36" length="5.01" shape="-13.60,-101.60 -8.64,-100.89"/>
    </edge>
    <edge id=":Node5_13" function="internal">
        <lane id=":Node5_13_0" index="0" speed="10.88" length="21.12" shape="-7.62,-100.89 -5.55,-100.65 0.20,-97.80 3.65,-93.05 4.80,-86.40"/>
        <lane id=":Node5_13_1" index="0" speed="10.36" length="19.50" shape="-8.64,-100.89 -6.95,-100.65 -2.20,-97.80 0.65,-93.05 1.60,-86.40"/>
    </edge>
    <edge id=":Node6_0" function="internal">
        <lane id=":Node6_0_0" index="0" speed="3.90" length="2.58" shape="192.00,-90.40 191.90,-91.10 191.60,-91.60 191.10,-91.90 190.40,-92.00"/>
        <lane id=":Node6_0_1" index="1" speed="6.08" length="7.74" shape="195.20,-90.40 194.90,-92.50 194.00,-94.00 192.50,-94.90 190.40,-95.20"/>
        <lane id=":Node6_0_2" index="2" speed="7.66" length="12.90" shape="198.40,-90.40 197.90,-93.90 196.40,-96.40 193.90,-97.90 190.40,-98.40"/>
    </edge>
    <edge id=":Node6_3" function="internal">
        <lane id=":Node6_3_0" index="0" speed="11.12" length="28.38" shape="190.40,-108.00 198.10,-106.90 203.60,-103.60 206.90,-98.10 208.00,-90.40"/>
        <lane id=":Node6_3_1" index="1" speed="10.10" length="23.22" shape="190.40,-104.80 196.70,-103.90 201.20,-101.20 203.90,-96.70 204.80,-90.40"/>
        <lane id=":Node6_3_2" index="2" speed="8.96" length="18.06" shape="190.40,-101.60 195.30,-100.90 198.80,-98.80 200.90,-95.30 201.60,-90.40"/>
    </edge>

    <edge id="-E34" from="Node6" to="Node3" priority="-1">
        <lane id="-E34_0" index="0" speed="13.89" length="180.80" shape="208.00,-90.40 208.00,90.40"/>
        <lane id="-E34_1" index="1" speed="13.89" length="180.80" shape="204.80,-90.40 204.80,90.40"/>
        <lane id="-E34_2" index="2" speed="13.89" length="180.80" shape="201.60,-90.40 201.60,90.40"/>
    </edge>
    <edge id="-E35" from="Node5" to="Node6" priority="-1">
        <lane id="-E35_0" index="0" speed="13.89" length="176.80" shape="13.60,-108.00 190.40,-108.00"/>
        <lane id="-E35_1" index="1" speed="13.89" length="176.80" shape="13.60,-104.80 190.40,-104.80"/>
        <lane id="-E35_2" index="2" speed="13.89" length="176.80" shape="13.60,-101.60 190.40,-101.60"/>
    </edge>
    <edge id="-E36" from="Node4" to="Node5" priority="-1">
        <lane id="-E36_0" index="0" speed="13.89" length="176.80" shape="-190.40,-108.00 -13.60,-108.00"/>
        <lane id="-E36_1" index="1" speed="13.89" length="176.80" shape="-190.40,-104.80 -13.60,-104.80"/>
        <lane id="-E36_2" index="2" speed="13.89" length="176.80" shape="-190.40,-101.60 -13.60,-101.60"/>
    </edge>
    <edge id="-E37" from="Node1" to="Node4" priority="-1">
        <lane id="-E37_0" index="0" speed="13.89" length="180.80" shape="-208.00,90.40 -208.00,-90.40"/>
        <lane id="-E37_1" index="1" speed="13.89" length="180.80" shape="-204.80,90.40 -204.80,-90.40"/>
        <lane id="-E37_2" index="2" speed="13.89" length="180.80" shape="-201.60,90.40 -201.60,-90.40"/>
    </edge>
    <edge id="E34" from="Node3" to="Node6" priority="-1">
        <lane id="E34_0" index="0" speed="13.89" length="180.80" shape="192.00,90.40 192.00,-90.40"/>
        <lane id="E34_1" index="1" speed="13.89" length="180.80" shape="195.20,90.40 195.20,-90.40"/>
        <lane id="E34_2" index="2" speed="13.89" length="180.80" shape="198.40,90.40 198.40,-90.40"/>
    </edge>
    <edge id="E35" from="Node6" to="Node5" priority="-1">
        <lane id="E35_0" index="0" speed="13.89" length="176.80" shape="190.40,-92.00 13.60,-92.00"/>
        <lane id="E35_1" index="1" speed="13.89" length="176.80" shape="190.40,-95.20 13.60,-95.20"/>
        <lane id="E35_2" index="2" speed="13.89" length="176.80" shape="190.40,-98.40 13.60,-98.40"/>
    </edge>
    <edge id="E36" from="Node5" to="Node4" priority="-1">
        <lane id="E36_0" index="0" speed="13.89" length="176.80" shape="-13.60,-92.00 -190.40,-92.00"/>
        <lane id="E36_1" index="1" speed="13.89" length="176.80" shape="-13.60,-95.20 -190.40,-95.20"/>
        <lane id="E36_2" index="2" speed="13.89" length="176.80" shape="-13.60,-98.40 -190.40,-98.40"/>
    </edge>
    <edge id="E37" from="Node4" to="Node1" priority="-1">
        <lane id="E37_0" index="0" speed="13.89" length="180.80" shape="-192.00,-90.40 -192.00,90.40"/>
        <lane id="E37_1" index="1" speed="13.89" length="180.80" shape="-195.20,-90.40 -195.20,90.40"/>
        <lane id="E37_2" index="2" speed="13.89" length="180.80" shape="-198.40,-90.40 -198.40,90.40"/>
    </edge>
    <edge id="Node1_2_EB" from="Node1" to="Node2" priority="-1">
        <lane id="Node1_2_EB_0" index="0" speed="13.89" length="176.80" shape="-190.40,92.00 -13.60,92.00"/>
        <lane id="Node1_2_EB_1" index="1" speed="13.89" length="176.80" shape="-190.40,95.20 -13.60,95.20"/>
        <lane id="Node1_2_EB_2" index="2" speed="13.89" length="176.80" shape="-190.40,98.40 -13.60,98.40"/>
    </edge>
    <edge id="Node1_2_WB" from="Node2" to="Node1" priority="-1">
        <lane id="Node1_2_WB_0" index="0" speed="13.89" length="176.80" shape="-13.60,108.00 -190.40,108.00"/>
        <lane id="Node1_2_WB_1" index="1" speed="13.89" length="176.80" shape="-13.60,104.80 -190.40,104.80"/>
        <lane id="Node1_2_WB_2" index="2" speed="13.89" length="176.80" shape="-13.60,101.60 -190.40,101.60"/>
    </edge>
    <edge id="Node2_3_EB" from="Node2" to="Node3" priority="-1">
        <lane id="Node2_3_EB_0" index="0" speed="13.89" length="176.80" shape="13.60,92.00 190.40,92.00"/>
        <lane id="Node2_3_EB_1" index="1" speed="13.89" length="176.80" shape="13.60,95.20 190.40,95.20"/>
        <lane id="Node2_3_EB_2" index="2" speed="13.89" length="176.80" shape="13.60,98.40 190.40,98.40"/>
    </edge>
    <edge id="Node2_3_WB" from="Node3" to="Node2" priority="-1">
        <lane id="Node2_3_WB_0" index="0" speed="13.89" length="176.80" shape="190.40,108.00 13.60,108.00"/>
        <lane id="Node2_3_WB_1" index="1" speed="13.89" length="176.80" shape="190.40,104.80 13.60,104.80"/>
        <lane id="Node2_3_WB_2" index="2" speed="13.89" length="176.80" shape="190.40,101.60 13.60,101.60"/>
    </edge>
    <edge id="Node2_5_NB" from="Node5" to="Node2" priority="-1">
        <lane id="Node2_5_NB_0" index="0" speed="13.89" length="172.80" shape="8.00,-86.40 8.00,86.40"/>
        <lane id="Node2_5_NB_1" index="1" speed="13.89" length="172.80" shape="4.80,-86.40 4.80,86.40"/>
        <lane id="Node2_5_NB_2" index="2" speed="13.89" length="172.80" shape="1.60,-86.40 1.60,86.40"/>
    </edge>
    <edge id="Node2_5_SB" from="Node2" to="Node5" priority="-1">
        <lane id="Node2_5_SB_0" index="0" speed="13.89" length="172.80" shape="-8.00,86.40 -8.00,-86.40"/>
        <lane id="Node2_5_SB_1" index="1" speed="13.89" length="172.80" shape="-4.80,86.40 -4.80,-86.40"/>
        <lane id="Node2_5_SB_2" index="2" speed="13.89" length="172.80" shape="-1.60,86.40 -1.60,-86.40"/>
    </edge>
    <edge id="Node2_7_NB" from="Node2" to="Node7" priority="-1">
        <lane id="Node2_7_NB_0" index="0" speed="13.89" length="186.40" shape="8.00,113.60 8.00,300.00"/>
        <lane id="Node2_7_NB_1" index="1" speed="13.89" length="186.40" shape="4.80,113.60 4.80,300.00"/>
        <lane id="Node2_7_NB_2" index="2" speed="13.89" length="186.40" shape="1.60,113.60 1.60,300.00"/>
    </edge>
    <edge id="Node2_7_SB" from="Node7" to="Node2" priority="-1">
        <lane id="Node2_7_SB_0" index="0" speed="13.89" length="186.40" shape="-8.00,300.00 -8.00,113.60"/>
        <lane id="Node2_7_SB_1" index="1" speed="13.89" length="186.40" shape="-4.80,300.00 -4.80,113.60"/>
        <lane id="Node2_7_SB_2" index="2" speed="13.89" length="186.40" shape="-1.60,300.00 -1.60,113.60"/>
    </edge>

    <tlLogic id="Node2" type="static" programID="0" offset="0">
        <phase duration="42" state="GGGGgrrrrrGGGGgrrrrr"/>
        <phase duration="3"  state="yyyyyrrrrryyyyyrrrrr"/>
        <phase duration="42" state="rrrrrGGGGgrrrrrGGGGg"/>
        <phase duration="3"  state="rrrrryyyyyrrrrryyyyy"/>
    </tlLogic>
    <tlLogic id="Node5" type="static" programID="0" offset="0">
        <phase duration="42" state="rrrrGGGGGGGgg"/>
        <phase duration="3"  state="rrrrGyyyyyyyy"/>
        <phase duration="42" state="GGGGGrrrrrrrr"/>
        <phase duration="3"  state="yyyyGrrrrrrrr"/>
    </tlLogic>

    <junction id="Node1" type="priority" x="-200.00" y="100.00" incLanes="Node1_2_WB_0 Node1_2_WB_1 Node1_2_WB_2 E37_0 E37_1 E37_2" intLanes=":Node1_0_0 :Node1_0_1 :Node1_0_2 :Node1_3_0 :Node1_3_1 :Node1_3_2" shape="-190.40,109.60 -190.40,90.40 -209.60,90.40 -209.07,96.27 -207.47,101.07 -204.80,104.80 -201.07,107.47 -196.27,109.07">
        <request index="0" response="000000" foes="000000" cont="0"/>
        <request index="1" response="000000" foes="000000" cont="0"/>
        <request index="2" response="000000" foes="000000" cont="0"/>
        <request index="3" response="000000" foes="000000" cont="0"/>
        <request index="4" response="000000" foes="000000" cont="0"/>
        <request index="5" response="000000" foes="000000" cont="0"/>
    </junction>
    <junction id="Node2" type="traffic_light" x="0.00" y="100.00" incLanes="Node2_7_SB_0 Node2_7_SB_1 Node2_7_SB_2 Node2_3_WB_0 Node2_3_WB_1 Node2_3_WB_2 Node2_5_NB_0 Node2_5_NB_1 Node2_5_NB_2 Node1_2_EB_0 Node1_2_EB_1 Node1_2_EB_2" intLanes=":Node2_0_0 :Node2_1_0 :Node2_1_1 :Node2_1_2 :Node2_20_0 :Node2_5_0 :Node2_6_0 :Node2_6_1 :Node2_6_2 :Node2_21_0 :Node2_10_0 :Node2_11_0 :Node2_11_1 :Node2_11_2 :Node2_22_0 :Node2_15_0 :Node2_16_0 :Node2_16_1 :Node2_16_2 :Node2_23_0" shape="-9.60,113.60 9.60,113.60 10.04,111.38 10.60,110.60 11.38,110.04 12.38,109.71 13.60,109.60 13.60,90.40 11.38,89.96 10.60,89.40 10.04,88.62 9.71,87.62 9.60,86.40 -9.60,86.40 -10.04,88.62 -10.60,89.40 -11.38,89.96 -12.38,90.29 -13.60,90.40 -13.60,109.60 -11.38,110.04 -10.60,110.60 -10.04,111.38 -9.71,112.38">
        <request index="0"  response="00000000000000000000" foes="00000000000111000000" cont="0"/>
        <request index="1"  response="10000000001000000000" foes="11111100001111000000" cont="0"/>
        <request index="2"  response="10000000001000000000" foes="11111100001111000000" cont="0"/>
        <request index="3"  response="10000000001000000000" foes="11111100001111000000" cont="0"/>
        <request index="4"  response="10000011101000000000" foes="11110011101111000000" cont="1"/>
        <request index="5"  response="00000011100000000000" foes="00000011100000000000" cont="0"/>
        <request index="6"  response="00000111100000011111" foes="10000111100000011111" cont="0"/>
        <request index="7"  response="00000111100000011111" foes="10000111100000011111" cont="0"/>
        <request index="8"  response="00000111100000011111" foes="10000111100000011111" cont="0"/>
        <request index="9"  response="01110111100000011110" foes="01110111100000011110" cont="1"/>
        <request index="10" response="00000000000000000000" foes="01110000000000000000" cont="0"/>
        <request index="11" response="10000000001000000000" foes="11110000001111110000" cont="0"/>
        <request index="12" response="10000000001000000000" foes="11110000001111110000" cont="0"/>
        <request index="13" response="10000000001000000000" foes="11110000001111110000" cont="0"/>
        <request index="14" response="10000000001000001110" foes="11110000001111001110" cont="1"/>
        <request index="15" response="00000000000000001110" foes="00000000000000001110" cont="0"/>
        <request index="16" response="00000111110000011110" foes="00000111111000011110" cont="0"/>
        <request index="17" response="00000111110000011110" foes="00000111111000011110" cont="0"/>
        <request index="18" response="00000111110000011110" foes="00000111111000011110" cont="0"/>
        <request index="19" response="00000111100111011110" foes="00000111100111011110" cont="1"/>
    </junction>
    <junction id="Node3" type="priority" x="200.00" y="100.00" incLanes="-E34_0 -E34_1 -E34_2 Node2_3_EB_0 Node2_3_EB_1 Node2_3_EB_2" intLanes=":Node3_0_0 :Node3_0_1 :Node3_0_2 :Node3_3_0 :Node3_3_1 :Node3_3_2" shape="209.60,90.40 190.40,90.40 190.40,109.60 196.27,109.07 201.07,107.47 204.80,104.80 207.47,101.07 209.07,96.27">
        <request index="0" response="000000" foes="000000" cont="0"/>
        <request index="1" response="000000" foes="000000" cont="0"/>
        <request index="2" response="000000" foes="000000" cont="0"/>
        <request index="3" response="000000" foes="000000" cont="0"/>
        <request index="4" response="000000" foes="000000" cont="0"/>
        <request index="5" response="000000" foes="000000" cont="0"/>
    </junction>
    <junction id="Node4" type="priority" x="-200.00" y="-100.00" incLanes="-E37_0 -E37_1 -E37_2 E36_0 E36_1 E36_2" intLanes=":Node4_0_0 :Node4_0_1 :Node4_0_2 :Node4_3_0 :Node4_3_1 :Node4_3_2" shape="-209.60,-90.40 -190.40,-90.40 -190.40,-109.60 -196.27,-109.07 -201.07,-107.47 -204.80,-104.80 -207.47,-101.07 -209.07,-96.27">
        <request index="0" response="000000" foes="000000" cont="0"/>
        <request index="1" response="000000" foes="000000" cont="0"/>
        <request index="2" response="000000" foes="000000" cont="0"/>
        <request index="3" response="000000" foes="000000" cont="0"/>
        <request index="4" response="000000" foes="000000" cont="0"/>
        <request index="5" response="000000" foes="000000" cont="0"/>
    </junction>
    <junction id="Node5" type="traffic_light" x="0.00" y="-100.00" incLanes="Node2_5_SB_0 Node2_5_SB_1 Node2_5_SB_2 E35_0 E35_1 E35_2 -E36_0 -E36_1 -E36_2" intLanes=":Node5_0_0 :Node5_0_1 :Node5_2_0 :Node5_2_1 :Node5_4_0 :Node5_5_0 :Node5_5_1 :Node5_5_2 :Node5_8_0 :Node5_8_1 :Node5_8_2 :Node5_13_0 :Node5_13_1" shape="-9.60,-86.40 9.60,-86.40 10.04,-88.62 10.60,-89.40 11.38,-89.96 12.38,-90.29 13.60,-90.40 13.60,-109.60 -13.60,-109.60 -13.60,-90.40 -11.38,-89.96 -10.60,-89.40 -10.04,-88.62 -9.71,-87.62">
        <request index="0"  response="0000011100000" foes="0000011100000" cont="0"/>
        <request index="1"  response="0000011100000" foes="0000011100000" cont="0"/>
        <request index="2"  response="1111111100000" foes="1111111100000" cont="0"/>
        <request index="3"  response="1111111100000" foes="1111111100000" cont="0"/>
        <request index="4"  response="0000000000000" foes="0000000000000" cont="0"/>
        <request index="5"  response="0000000000000" foes="1100000001111" cont="0"/>
        <request index="6"  response="0000000000000" foes="1100000001111" cont="0"/>
        <request index="7"  response="0000000000000" foes="1100000001111" cont="0"/>
        <request index="8"  response="0000000000000" foes="0000000001100" cont="0"/>
        <request index="9"  response="0000000000000" foes="0000000001100" cont="0"/>
        <request index="10" response="0000000000000" foes="0000000001100" cont="0"/>
        <request index="11" response="0000011100000" foes="0000011101100" cont="1"/>
        <request index="12" response="0000011100000" foes="0000011101100" cont="1"/>
    </junction>
    <junction id="Node6" type="priority" x="200.00" y="-100.00" incLanes="E34_0 E34_1 E34_2 -E35_0 -E35_1 -E35_2" intLanes=":Node6_0_0 :Node6_0_1 :Node6_0_2 :Node6_3_0 :Node6_3_1 :Node6_3_2" shape="190.40,-90.40 209.60,-90.40 209.07,-96.27 207.47,-101.07 204.80,-104.80 201.07,-107.47 196.27,-109.07 190.40,-109.60">
        <request index="0" response="000000" foes="000000" cont="0"/>
        <request index="1" response="000000" foes="000000" cont="0"/>
        <request index="2" response="000000" foes="000000" cont="0"/>
        <request index="3" response="000000" foes="000000" cont="0"/>
        <request index="4" response="000000" foes="000000" cont="0"/>
        <request index="5" response="000000" foes="000000" cont="0"/>
    </junction>
    <junction id="Node7" type="dead_end" x="0.00" y="300.00" incLanes="Node2_7_NB_0 Node2_7_NB_1 Node2_7_NB_2" intLanes="" shape="0.00,300.00 9.60,300.00 0.00,300.00"/>

    <junction id=":Node2_20_0" type="internal" x="-0.89" y="108.64" incLanes=":Node2_4_0 Node2_5_NB_0 Node2_5_NB_1 Node2_5_NB_2" intLanes=":Node2_6_0 :Node2_6_1 :Node2_6_2 :Node2_9_0 :Node2_10_0 :Node2_11_0 :Node2_11_1 :Node2_11_2 :Node2_16_0 :Node2_16_1 :Node2_16_2 :Node2_19_0"/>
    <junction id=":Node2_21_0" type="internal" x="8.64" y="100.89" incLanes=":Node2_9_0 Node1_2_EB_0 Node1_2_EB_1 Node1_2_EB_2" intLanes=":Node2_1_0 :Node2_1_1 :Node2_1_2 :Node2_4_0 :Node2_11_0 :Node2_11_1 :Node2_11_2 :Node2_14_0 :Node2_15_0 :Node2_16_0 :Node2_16_1 :Node2_16_2"/>
    <junction id=":Node2_22_0" type="internal" x="0.89" y="91.36" incLanes=":Node2_14_0 Node2_7_SB_0 Node2_7_SB_1 Node2_7_SB_2" intLanes=":Node2_0_0 :Node2_1_0 :Node2_1_1 :Node2_1_2 :Node2_6_0 :Node2_6_1 :Node2_6_2 :Node2_9_0 :Node2_16_0 :Node2_16_1 :Node2_16_2 :Node2_19_0"/>
    <junction id=":Node2_23_0" type="internal" x="-8.64" y="99.11" incLanes=":Node2_19_0 Node2_3_WB_0 Node2_3_WB_1 Node2_3_WB_2" intLanes=":Node2_1_0 :Node2_1_1 :Node2_1_2 :Node2_4_0 :Node2_5_0 :Node2_6_0 :Node2_6_1 :Node2_6_2 :Node2_11_0 :Node2_11_1 :Node2_11_2 :Node2_14_0"/>
    <junction id=":Node5_13_0" type="internal" x="-7.62" y="-100.89" incLanes=":Node5_11_0 E35_0 E35_1 E35_2" intLanes=":Node5_2_0 :Node5_2_1 :Node5_5_0 :Node5_5_1 :Node5_5_2"/>
    <junction id=":Node5_13_1" type="internal" x="-8.64" y="-100.89" incLanes=":Node5_11_1 E35_0 E35_1 E35_2" intLanes=":Node5_2_0 :Node5_2_1 :Node5_5_0 :Node5_5_1 :Node5_5_2"/>

    <connection from="-E34" to="Node2_3_WB" fromLane="0" toLane="0" via=":Node3_0_0" dir="l" state="M"/>
    <connection from="-E34" to="Node2_3_WB" fromLane="1" toLane="1" via=":Node3_0_1" dir="l" state="M"/>
    <connection from="-E34" to="Node2_3_WB" fromLane="2" toLane="2" via=":Node3_0_2" dir="l" state="M"/>
    <connection from="-E35" to="-E34" fromLane="0" toLane="0" via=":Node6_3_0" dir="l" state="M"/>
    <connection from="-E35" to="-E34" fromLane="1" toLane="1" via=":Node6_3_1" dir="l" state="M"/>
    <connection from="-E35" to="-E34" fromLane="2" toLane="2" via=":Node6_3_2" dir="l" state="M"/>
    <connection from="-E36" to="-E35" fromLane="0" toLane="0" via=":Node5_8_0" tl="Node5" linkIndex="8" dir="s" state="O"/>
    <connection from="-E36" to="-E35" fromLane="1" toLane="1" via=":Node5_8_1" tl="Node5" linkIndex="9" dir="s" state="O"/>
    <connection from="-E36" to="-E35" fromLane="2" toLane="2" via=":Node5_8_2" tl="Node5" linkIndex="10" dir="s" state="O"/>
    <connection from="-E36" to="Node2_5_NB" fromLane="2" toLane="1" via=":Node5_11_0" tl="Node5" linkIndex="11" dir="l" state="o"/>
    <connection from="-E36" to="Node2_5_NB" fromLane="2" toLane="2" via=":Node5_11_1" tl="Node5" linkIndex="12" dir="l" state="o"/>
    <connection from="-E37" to="-E36" fromLane="0" toLane="0" via=":Node4_0_0" dir="l" state="M"/>
    <connection from="-E37" to="-E36" fromLane="1" toLane="1" via=":Node4_0_1" dir="l" state="M"/>
    <connection from="-E37" to="-E36" fromLane="2" toLane="2" via=":Node4_0_2" dir="l" state="M"/>
    <connection from="E34" to="E35" fromLane="0" toLane="0" via=":Node6_0_0" dir="r" state="M"/>
    <connection from="E34" to="E35" fromLane="1" toLane="1" via=":Node6_0_1" dir="r" state="M"/>
    <connection from="E34" to="E35" fromLane="2" toLane="2" via=":Node6_0_2" dir="r" state="M"/>
    <connection from="E35" to="Node2_5_NB" fromLane="0" toLane="0" via=":Node5_4_0" tl="Node5" linkIndex="4" dir="r" state="O"/>
    <connection from="E35" to="E36" fromLane="0" toLane="0" via=":Node5_5_0" tl="Node5" linkIndex="5" dir="s" state="O"/>
    <connection from="E35" to="E36" fromLane="1" toLane="1" via=":Node5_5_1" tl="Node5" linkIndex="6" dir="s" state="O"/>
    <connection from="E35" to="E36" fromLane="2" toLane="2" via=":Node5_5_2" tl="Node5" linkIndex="7" dir="s" state="O"/>