<?xml version="1.0" encoding="UTF-8"?>

<!-- generated on 2025-09-04 19:42:36 by Eclipse SUMO netedit Version 1.24.0
-->

<routes xmlns:xsi="http://www.w3.org/2001/XMLSchema-instance" xsi:noNamespaceSchemaLocation="http://sumo.dlr.de/xsd/routes_file.xsd">
    <!-- Vehicles, persons and containers (sorted by depart) -->
    <flow id="f_0" begin="00:00:00" from="-E36" to="Node1_2_WB" via="-E35 -E34 Node2_3_WB" end="01:00:00" number="1800"/>
    <flow id="f_1" begin="00:00:00" from="Node2_7_SB" to="E37" via="Node2_5_SB E36" end="01:00:00" number="1800"/>
    <flow id="f_2" begin="00:00:00" from="Node1_2_EB" to="E36" via="Node2_3_EB E34 E35" end="01:00:00" number="1800"/>
</routes>
