<?xml version="1.0" encoding="UTF-8"?>

<!-- generated on 2025-09-11 11:11:38 by Eclipse SUMO netedit Version 1.24.0
-->

<additional xmlns:xsi="http://www.w3.org/2001/XMLSchema-instance" xsi:noNamespaceSchemaLocation="http://sumo.dlr.de/xsd/additional_file.xsd">
    <!-- Detectors -->
    <laneAreaDetector id="Node1_2_EB_0" lane="Node1_2_EB_0" pos="0.00" length="155.00" period="300.00" file="e2_0.xml" friendlyPos="1"/>
    <laneAreaDetector id="Node1_2_EB_1" lane="Node1_2_EB_1" pos="0.00" length="155.00" period="300.00" file="e2_2.xml" friendlyPos="1"/>
    <laneAreaDetector id="Node1_2_EB_2" lane="Node1_2_EB_2" pos="0.00" length="155.00" period="300.00" file="e2_1.xml" friendlyPos="1"/>
    <laneAreaDetector id="Node2_3_WB_0" lane="Node2_3_WB_0" pos="0.00" length="163.00" period="300.00" file="e2_1.xml" friendlyPos="1"/>
    <laneAreaDetector id="Node2_3_WB_1" lane="Node2_3_WB_1" pos="0.00" length="163.00" period="300.00" file="e2_0.xml" friendlyPos="1"/>
    <laneAreaDetector id="Node2_3_WB_2" lane="Node2_3_WB_2" pos="0.00" length="163.00" period="300.00" file="e2_2.xml" friendlyPos="1"/>
    <laneAreaDetector id="Node2_5_NB_0" lane="Node2_5_NB_0" pos="3.42" length="80.00" period="300.00" file="e2_0.xml" friendlyPos="1"/>
    <laneAreaDetector id="Node2_5_NB_1" lane="Node2_5_NB_1" pos="3.20" length="80.00" period="300.00" file="e2_1.xml" friendlyPos="1"/>
    <laneAreaDetector id="Node2_5_NB_2" lane="Node2_5_NB_2" pos="1.77" length="82.00" period="300.00" file="e2_3.xml" friendlyPos="1"/>
    <laneAreaDetector id="Node2_7_SB_0" lane="Node2_7_SB_0" pos="0.00" length="87.00" period="300.00" file="e2_3.xml"/>
    <laneAreaDetector id="Node2_7_SB_1" lane="Node2_7_SB_1" pos="0.00" length="87.00" period="300.00" file="e2_4.xml" friendlyPos="1"/>
    <laneAreaDetector id="Node2_7_SB_2" lane="Node2_7_SB_2" pos="0.00" length="87.00" period="300.00" file="e2_5.xml" friendlyPos="1"/>
</additional>
